<?xml version="1.0" encoding="UTF-8"?>

<!-- generated on 2025-04-29 18:00:59 by Eclipse SUMO netedit Version 1.22.0
-->

<additional xmlns:xsi="http://www.w3.org/2001/XMLSchema-instance" xsi:noNamespaceSchemaLocation="http://sumo.dlr.de/xsd/additional_file.xsd">
    <!-- Detectors -->
    <laneAreaDetector id="1.1" lane="50831944#3_0" pos="1.00" length="300.00" period="300.00" file="e2_0.xml" friendlyPos="1"/>
    <laneAreaDetector id="1.10" lane="637438872#0_0" pos="1.00" length="100.00" period="300.00" file="e2_8.xml"/>
    <laneAreaDetector id="1.11" lane="637438872#0_1" pos="1.00" length="100.00" period="300.00" file="e2_9.xml"/>
    <laneAreaDetector id="1.12" lane="637438872#0_2" pos="1.00" length="100.00" period="300.00" file="e2_10.xml"/>
    <laneAreaDetector id="1.13" lane="637438872#0_3" pos="1.00" length="100.00" period="300.00" file="e2_11.xml"/>
    <laneAreaDetector id="1.2" lane="50831944#3_1" pos="1.00" length="300.00" period="300.00" file="e2_1.xml" friendlyPos="1"/>
    <laneAreaDetector id="1.3" lane="50831944#3_2" pos="1.00" length="300.00" period="300.00" file="e2_12.xml" friendlyPos="1"/>
    <laneAreaDetector id="1.4" lane="270077326#12_0" pos="1.00" length="20.00" period="300.00" file="e2_2.xml"/>
    <laneAreaDetector id="1.5" lane="270077326#12_1" pos="1.00" length="20.00" period="300.00" file="e2_3.xml"/>
    <laneAreaDetector id="1.6" lane="270077326#12_2" pos="1.00" length="20.00" period="300.00" file="e2_4.xml"/>
    <laneAreaDetector id="1.7" lane="270077326#12_3" pos="1.00" length="20.00" period="300.00" file="e2_5.xml"/>
    <laneAreaDetector id="1.8" lane="-174648249#3_0" pos="1.00" length="40.00" period="300.00" file="e2_6.xml"/>
    <laneAreaDetector id="1.9" lane="-174648249#3_1" pos="1.00" length="40.00" period="300.00" file="e2_7.xml"/>
    <laneAreaDetector id="2.10" lane="22774209_0" pos="1.00" length="208.00" period="300.00" file="e2_27.xml" friendlyPos="1"/>
    <laneAreaDetector id="2.11" lane="22774209_1" pos="1.00" length="208.00" period="300.00" file="e2_28.xml" friendlyPos="1"/>
    <laneAreaDetector id="2.12" lane="22774209_2" pos="1.00" length="208.00" period="300.00" file="e2_29.xml" friendlyPos="1"/>
    <laneAreaDetector id="2.13" lane="22774209_3" pos="1.00" length="208.00" period="300.00" file="e2_30.xml" friendlyPos="1"/>
    <laneAreaDetector id="2.4" lane="270077326#7_0" pos="1.00" length="280.00" period="300.00" file="e2_16.xml" friendlyPos="1"/>
    <laneAreaDetector id="2.5" lane="270077326#7_1" pos="1.00" length="280.00" period="300.00" file="e2_14.xml" friendlyPos="1"/>
    <laneAreaDetector id="2.6" lane="270077326#7_2" pos="1.00" length="280.00" period="300.00" file="e2_13.xml" friendlyPos="1"/>
    <laneAreaDetector id="2.7" lane="270077326#7_3" pos="1.00" length="280.00" period="300.00" file="e2_15.xml" friendlyPos="1"/>
    <laneAreaDetector id="2.8" lane="-627140112#9_0" pos="500.00" length="323.00" period="300.00" file="e2_31.xml" friendlyPos="1"/>
    <laneAreaDetector id="2.9" lane="-627140112#9_1" pos="500.00" length="323.00" period="300.00" file="e2_26.xml" friendlyPos="1"/>
    <laneAreaDetector id="3.4" lane="270077326#6_0" pos="1.00" length="40.00" period="300.00" file="e2_17.xml" friendlyPos="1"/>
    <laneAreaDetector id="3.5" lane="270077326#6_1" pos="1.00" length="40.00" period="300.00" file="e2_18.xml" friendlyPos="1"/>
    <laneAreaDetector id="3.6" lane="270077326#6_2" pos="1.00" length="40.00" period="300.00" file="e2_19.xml" friendlyPos="1"/>
    <laneAreaDetector id="3.7" lane="270077326#6_3" pos="1.00" length="40.00" period="300.00" file="e2_20.xml" friendlyPos="1"/>
    <laneAreaDetector id="4.4" lane="270077326#4_0" pos="1.00" length="297.00" period="300.00" file="e2_21.xml" friendlyPos="1"/>
    <laneAreaDetector id="4.5" lane="270077326#4_1" pos="1.00" length="297.00" period="300.00" file="e2_22.xml" friendlyPos="1"/>
    <laneAreaDetector id="4.6" lane="270077326#4_2" pos="1.00" length="297.00" period="300.00" file="e2_23.xml" friendlyPos="1"/>
    <laneAreaDetector id="4.7" lane="270077326#4_3" pos="1.00" length="297.00" period="300.00" file="e2_24.xml" friendlyPos="1"/>
    <laneAreaDetector id="e2_25" lane="-627140112#9_0" pos="1.00" length="10.00" period="300.00" file="e2_25.xml" friendlyPos="1"/>
    <!-- Shapes -->
    <poly id="1060055827" type="building.yes" color="255,230,230" fill="1" layer="-1.00" shape="807.182100,619.892580 809.417495,609.688697 797.509131,607.097514 796.163009,613.222088 802.428021,614.594059 802.888216,618.956230 807.182100,619.892580"/>
    <poly id="106789647" type="building.yes" color="255,230,230" fill="1" layer="-1.00" shape="658.971568,14.584852 667.485593,14.358906 658.971568,14.584852"/>
    <poly id="1087696804" type="building.yes" color="255,230,230" fill="1" layer="-1.00" shape="801.379464,-2.792475 785.992954,-2.559030 786.362922,22.391736 801.757548,22.158256 801.379464,-2.792475"/>
    <poly id="1087696805" type="building.yes" color="255,230,230" fill="1" layer="-1.00" shape="738.147648,-2.406386 722.752919,-2.183868 723.131287,22.766860 738.525960,22.544343 738.147648,-2.406386"/>
    <poly id="110641492" type="building.yes" color="255,230,230" fill="1" layer="-1.00" shape="445.460784,1638.793396 466.535812,1638.056640 466.984438,1650.902903 480.626029,1650.432071 480.177429,1637.585807 579.058638,1634.142632 579.507297,1647.044424 590.200028,1646.675563 589.743219,1633.773806 625.039860,1632.542200 623.162800,1578.825477 455.345288,1584.680729 455.027423,1575.565099 435.994358,1576.226275 436.890750,1601.696704 444.152687,1601.442657 445.460784,1638.793396"/>
    <poly id="1146468522" type="building.retail" color="255,230,230" fill="1" layer="-1.00" shape="638.240684,998.446211 638.584399,991.093351 638.928164,983.751596 645.073731,984.035675 644.730008,991.388535 644.386237,998.730290 638.240684,998.446211"/>
    <poly id="1155189824" type="building.ger" color="255,230,230" fill="1" layer="-1.00" shape="1050.869846,1429.741242 1051.838210,1430.736497 1052.545996,1431.932761 1052.943897,1433.263618 1053.007023,1434.640338 1052.743302,1436.007362 1052.152305,1437.264748 1051.282763,1438.345660 1050.175241,1439.183292 1048.903075,1439.732910 1047.531530,1439.972023 1046.142160,1439.866966 1044.816762,1439.439594 1043.637129,1438.711766 1042.668766,1437.716512 1041.960979,1436.520249 1041.563075,1435.189392 1041.499900,1433.801568 1041.763666,1432.445648 1042.354662,1431.188261 1043.224203,1430.107348 1044.331726,1429.269715 1045.603893,1428.720096 1046.975441,1428.480982 1048.364813,1428.586040 1049.690213,1429.013412 1050.869846,1429.741242"/>
    <poly id="1155189825" type="building.ger" color="255,230,230" fill="1" layer="-1.00" shape="1062.819492,1430.889054 1063.787853,1431.884311 1064.495637,1433.080576 1064.893537,1434.411435 1064.956707,1435.799259 1064.684766,1437.155213 1064.101937,1438.412563 1063.232394,1439.493473 1062.124870,1440.331103 1060.852704,1440.880719 1059.481158,1441.119830 1058.091789,1441.014770 1056.766392,1440.587396 1055.586761,1439.859566 1054.618399,1438.864310 1053.910615,1437.668046 1053.512713,1436.337188 1053.449588,1434.960469 1053.713309,1433.593445 1054.304307,1432.336058 1055.173849,1431.255148 1056.281374,1430.417516 1057.553542,1429.867899 1058.925090,1429.628788 1060.314461,1429.733848 1061.631690,1430.161258 1062.819492,1430.889054"/>
    <poly id="1155189826" type="building.ger" color="255,230,230" fill="1" layer="-1.00" shape="1075.076656,1427.560340 1076.045016,1428.555599 1076.752798,1429.751865 1077.150695,1431.082724 1077.213863,1432.470548 1076.941920,1433.826502 1076.359088,1435.083851 1075.489543,1436.164759 1074.382017,1437.002388 1073.109849,1437.552001 1071.738302,1437.791110 1070.348933,1437.686047 1069.023535,1437.258671 1067.843905,1436.530839 1066.875545,1435.535581 1066.167762,1434.339316 1065.769863,1433.008457 1065.706740,1431.631738 1065.970464,1430.264715 1066.561464,1429.007329 1067.431009,1427.926420 1068.538535,1427.088790 1069.810705,1426.539176 1071.182254,1426.300067 1072.571626,1426.405130 1073.897025,1426.832506 1075.076656,1427.560340"/>
    <poly id="1155189827" type="building.ger" color="255,230,230" fill="1" layer="-1.00" shape="1068.902843,1394.072737 1069.871208,1395.067994 1070.578994,1396.264261 1070.976895,1397.595119 1071.040016,1398.971839 1070.776291,1400.338861 1070.185287,1401.596247 1069.315738,1402.677155 1068.208208,1403.514785 1066.936034,1404.064399 1065.564481,1404.303509 1064.175105,1404.198448 1062.857870,1403.771038 1061.670064,1403.043241 1060.701698,1402.047985 1059.993911,1400.851720 1059.596009,1399.520862 1059.532837,1398.133038 1059.804778,1396.777084 1060.387610,1395.519733 1061.257158,1394.438823 1062.364689,1393.601193 1063.645035,1393.051542 1065.008420,1392.812467 1066.397799,1392.917529 1067.723205,1393.344904 1068.902843,1394.072737"/>
    <poly id="1155189828" type="building.ger" color="255,230,230" fill="1" layer="-1.00" shape="1056.966774,1396.089715 1057.943311,1397.084935 1058.642929,1398.281235 1059.040832,1399.612093 1059.112126,1400.988777 1058.840233,1402.355836 1058.257401,1403.613187 1057.379685,1404.694132 1056.280326,1405.531728 1054.999984,1406.081381 1053.628431,1406.320493 1052.239055,1406.215434 1050.921821,1405.788026 1049.742135,1405.049092 1048.765646,1404.064977 1048.066027,1402.868678 1047.668122,1401.537821 1047.596778,1400.150032 1047.868717,1398.794077 1048.451547,1397.536726 1049.329263,1396.455779 1050.428622,1395.618182 1051.708966,1395.068529 1053.080521,1394.829416 1054.461729,1394.934511 1055.787136,1395.361884 1056.966774,1396.089715"/>
    <poly id="1155189829" type="building.ger" color="255,230,230" fill="1" layer="-1.00" shape="1045.599439,1401.158073 1046.567807,1402.153327 1047.267426,1403.349626 1047.665331,1404.680483 1047.736675,1406.068272 1047.464736,1407.424226 1046.881907,1408.681578 1046.012363,1409.762490 1044.904837,1410.600123 1043.624496,1411.149777 1042.252945,1411.388892 1040.871740,1411.283800 1039.546336,1410.856430 1038.366698,1410.128602 1037.390160,1409.133384 1036.690539,1407.937086 1036.292633,1406.606230 1036.229504,1405.229510 1036.493223,1403.862486 1037.084220,1402.605098 1037.953763,1401.524185 1039.061291,1400.686551 1040.333463,1400.136931 1041.705016,1399.897816 1043.094394,1400.002873 1044.411630,1400.430279 1045.599439,1401.158073"/>
    <poly id="1155189830" type="building.ger" color="255,230,230" fill="1" layer="-1.00" shape="1056.384535,1412.649437 1057.648311,1413.943249 1058.570048,1415.493944 1059.084052,1417.224073 1059.173553,1419.033765 1058.821683,1420.800941 1058.060742,1422.436621 1056.922977,1423.840726 1055.481584,1424.935206 1053.826192,1425.664152 1052.038215,1425.960583 1050.232079,1425.835111 1048.505775,1425.276210 1046.973827,1424.316700 1045.701881,1423.022926 1044.788312,1421.472197 1044.274304,1419.742069 1044.184848,1417.943481 1044.536666,1416.165201 1045.297605,1414.529519 1046.435369,1413.125412 1047.868594,1412.030965 1049.532205,1411.313088 1051.320138,1411.005551 1053.126326,1411.142128 1054.844463,1411.701065 1056.384535,1412.649437"/>
    <poly id="1155189831" type="building.yes" color="255,230,230" fill="1" layer="-1.00" shape="1126.985715,1375.366623 1130.005556,1378.440765 1132.186603,1382.151487 1133.421693,1386.277151 1133.628124,1390.584915 1132.796536,1394.797197 1130.975044,1398.702802 1128.268807,1402.056973 1124.832245,1404.670266 1120.877108,1406.386304 1116.615385,1407.104234 1112.308418,1406.800722 1108.201257,1405.463610 1104.531260,1403.191819 1101.519541,1400.106548 1099.330313,1396.395871 1098.095205,1392.270213 1097.888798,1387.973555 1098.720318,1383.750163 1100.541845,1379.855655 1103.248077,1376.501473 1106.684645,1373.888170 1110.647967,1372.172088 1114.901493,1371.443085 1119.208530,1371.757703 1123.315709,1373.094822 1126.985715,1375.366623"/>
    <poly id="1155189832" type="tourism.theme_park" color="207,245,201" fill="1" layer="-2.00" shape="1023.566701,1467.926155 1076.336317,1469.630893 1081.862318,1379.269782 1026.217251,1396.766445 1023.566701,1467.926155"/>
    <poly id="1200905647" type="leisure.pitch" color="207,245,201" fill="1" layer="-2.00" shape="1139.852021,3480.246037 1140.307957,3502.697995 1180.358637,3501.892893 1179.902832,3479.440934 1139.852021,3480.246037"/>
    <poly id="1200905647#1" type="sport.soccer" color="79,230,125" fill="1" layer="-2.00" shape="1139.852021,3480.246037 1140.307957,3502.697995 1180.358637,3501.892893 1179.902832,3479.440934 1139.852021,3480.246037"/>
    <poly id="1245613923" type="amenity.parking" color="184,184,179" fill="1" layer="-1.00" shape="1093.137279,3356.106591 1116.155393,3354.486125 1118.409899,3409.567359 1111.646930,3409.552049 1098.205526,3408.288451 1093.137279,3356.106591"/>
    <poly id="1245613924" type="amenity.parking" color="184,184,179" fill="1" layer="-1.00" shape="1090.457379,3211.800108 1115.643752,3210.936537 1116.900975,3290.497036 1096.017000,3290.809044 1090.457379,3211.800108"/>
    <poly id="129246036" type="building.yes" color="255,230,230" fill="1" layer="-1.00" shape="743.073192,44.045553 754.186574,43.997178 754.157239,37.256722 743.043846,37.305097 743.073192,44.045553"/>
    <poly id="129246038" type="building.yes" color="255,230,230" fill="1" layer="-1.00" shape="923.730537,79.029798 937.101781,56.895705 932.811846,55.059770 937.371336,45.534381 901.758584,45.477524 902.191640,75.658358 917.773662,75.324382 923.730537,79.029798"/>
    <poly id="130204519" type="building.yes" color="255,230,230" fill="1" layer="-1.00" shape="186.284858,1356.355503 190.698565,1439.644013 234.202427,1437.352370 229.781026,1354.052767 186.284858,1356.355503"/>
    <poly id="130204523" type="building.yes" color="255,230,230" fill="1" layer="-1.00" shape="273.047221,1393.949495 370.582673,1388.399403 369.493780,1369.359506 271.958059,1374.909612 273.047221,1393.949495"/>
    <poly id="133453139" type="building.construction" color="255,230,230" fill="1" layer="-1.00" shape="895.042360,687.028317 895.469157,730.845855 915.062274,730.661054 914.635602,686.843515 895.042360,687.028317"/>
    <poly id="156614640" type="building.yes" color="255,230,230" fill="1" layer="-1.00" shape="1140.928407,3022.079479 1146.419673,3028.296766 1156.819415,3019.168339 1151.319983,3012.951079 1140.928407,3022.079479"/>
    <poly id="156614641" type="building.yes" color="255,230,230" fill="1" layer="-1.00" shape="1107.891980,3040.089234 1095.467121,3026.572666 1116.247204,3007.627260 1124.534274,3006.769846 1133.610778,3016.636283 1107.891980,3040.089234"/>
    <poly id="156614642" type="building.yes" color="255,230,230" fill="1" layer="-1.00" shape="1166.913354,2997.792651 1173.053758,3004.906658 1182.567444,2996.759299 1176.427042,2989.645283 1166.913354,2997.792651"/>
    <poly id="156614643" type="building.yes" color="255,230,230" fill="1" layer="-1.00" shape="1168.609607,2970.534191 1155.314570,2957.909639 1160.860431,2952.111313 1174.155421,2964.724771 1168.609607,2970.534191"/>
    <poly id="156614644" type="building.yes" color="255,230,230" fill="1" layer="-1.00" shape="1157.829882,2980.597035 1151.110506,2973.718730 1158.106126,2966.948052 1164.817333,2973.826399 1157.829882,2980.597035"/>
    <poly id="156614645" type="building.yes" color="255,230,230" fill="1" layer="-1.00" shape="1135.328514,2954.519762 1143.734603,2947.132240 1147.559629,2951.457771 1145.793776,2953.008929 1151.186550,2959.104490 1144.546316,2964.940844 1135.328514,2954.519762"/>
    <poly id="156614646" type="building.yes" color="255,230,230" fill="1" layer="-1.00" shape="1174.629652,2957.226996 1164.626159,2948.341711 1170.617421,2941.641991 1180.620916,2950.527284 1174.629652,2957.226996"/>
    <poly id="156614647" type="building.yes" color="255,230,230" fill="1" layer="-1.00" shape="1177.984292,2954.736220 1184.144221,2960.684149 1187.364645,2957.372198 1181.204717,2951.424266 1177.984292,2954.736220"/>
    <poly id="156614648" type="building.yes" color="255,230,230" fill="1" layer="-1.00" shape="1170.582309,2910.648656 1163.197599,2918.131699 1177.495128,2932.128955 1184.879885,2924.657032 1170.582309,2910.648656"/>
    <poly id="156614649" type="building.yes" color="255,230,230" fill="1" layer="-1.00" shape="1151.762961,2927.875325 1158.685582,2934.519556 1166.150902,2926.791856 1159.220160,2920.158757 1151.762961,2927.875325"/>
    <poly id="169949899" type="amenity.car_wash" color="237,199,199" fill="1" layer="-1.00" shape="980.792912,2221.392488 981.006492,2270.807866 989.159113,2270.772634 988.945592,2221.357256 980.792912,2221.392488"/>
    <poly id="169949899#1" type="building.yes" color="255,230,230" fill="1" layer="-1.00" shape="980.792912,2221.392488 981.006492,2270.807866 989.159113,2270.772634 988.945592,2221.357256 980.792912,2221.392488"/>
    <poly id="169949917" type="landuse.forest" color="140,196,107" fill="1" layer="-3.00" shape="1083.369558,2476.582106 1083.565877,2414.061299 1056.333261,2304.774286 1046.617195,2298.386510 1046.340365,2448.235715 1050.547820,2459.711027 1083.369558,2476.582106"/>
    <poly id="169949920" type="landuse.grass" color="194,194,130" fill="1" layer="-3.00" shape="980.954400,2476.102329 996.616506,2470.981968 1014.532594,2454.358454 1014.313492,2295.760808 973.713912,2295.936210 974.928550,2471.075698 980.954400,2476.102329"/>
    <poly id="169949922" type="landuse.forest" color="140,196,107" fill="1" layer="-3.00" shape="1049.334353,2714.382453 1070.116311,2718.423838 1082.543228,2713.317611 1086.667287,2705.482071 1086.215948,2494.492976 1066.796255,2484.471288 1047.935270,2496.046062 1049.334353,2714.382453"/>
    <poly id="169949923" type="landuse.grass" color="194,194,130" fill="1" layer="-3.00" shape="1015.640036,2710.852166 994.870124,2707.721485 981.898171,2694.440687 980.124744,2497.715838 984.246602,2491.257244 1001.750822,2485.207236 1011.001310,2489.764668 1015.654098,2500.316340 1015.640036,2710.852166"/>
    <poly id="169949942" type="leisure.park" color="207,245,201" fill="1" layer="-2.00" shape="1074.681908,1512.313659 973.784156,1510.861205 919.138501,1426.779059 938.335326,1410.993814 970.098794,1387.847354 1007.703167,1379.611742 1017.518086,1372.628895 1026.792678,1363.494069 1027.132577,1372.209847 1026.217251,1396.766445 1023.566701,1467.926155 1076.336317,1469.630893 1074.681908,1512.313659"/>
    <poly id="170359109" type="amenity.public_building" color="237,199,199" fill="1" layer="-1.00" shape="75.476060,1425.097997 74.866927,1409.398541 59.722046,1409.976813 60.063564,1418.781387 45.441533,1419.346256 45.709197,1426.241136 75.476060,1425.097997"/>
    <poly id="170359109#1" type="building.yes" color="255,230,230" fill="1" layer="-1.00" shape="75.476060,1425.097997 74.866927,1409.398541 59.722046,1409.976813 60.063564,1418.781387 45.441533,1419.346256 45.709197,1426.241136 75.476060,1425.097997"/>
    <poly id="171371245" type="building.yes" color="255,230,230" fill="1" layer="-1.00" shape="1116.230240,3140.340791 1104.170846,3128.188525 1109.026599,3123.403662 1101.708900,3116.028264 1108.899018,3108.945761 1112.721969,3112.804881 1109.013011,3116.452115 1113.410201,3120.886213 1118.290422,3116.090146 1125.156955,3123.023310 1117.031489,3131.031520 1118.754259,3132.767560 1124.325788,3127.280024 1126.877101,3129.845362 1116.230240,3140.340791"/>
    <poly id="171371249" type="building.yes" color="255,230,230" fill="1" layer="-1.00" shape="1129.367748,3125.903548 1122.286465,3118.416063 1126.703892,3114.266072 1128.230106,3115.880807 1130.263927,3113.973137 1135.818994,3119.845893 1129.367748,3125.903548"/>
    <poly id="171371253" type="building.yes" color="255,230,230" fill="1" layer="-1.00" shape="1127.939334,3164.110206 1130.266087,3165.743708 1132.652975,3162.368686 1130.326222,3160.735184 1127.939334,3164.110206"/>
    <poly id="171371256" type="building.yes" color="255,230,230" fill="1" layer="-1.00" shape="1125.676117,3171.549055 1132.987380,3171.750804 1132.915732,3174.083120 1135.693243,3174.171117 1135.445193,3182.967187 1132.291963,3182.880806 1132.206893,3185.890573 1125.279582,3185.698278 1125.676117,3171.549055"/>
    <poly id="171371259" type="building.yes" color="255,230,230" fill="1" layer="-1.00" shape="1082.453818,3227.214739 1083.450258,3242.368502 1087.214612,3242.119083 1086.218180,3226.965320 1082.453818,3227.214739"/>
    <poly id="171407360" type="leisure.pitch" color="207,245,201" fill="1" layer="-2.00" shape="917.336955,3164.719612 932.600497,3164.131572 931.737692,3142.192217 916.474149,3142.791363 917.336955,3164.719612"/>
    <poly id="171703038" type="building.yes" color="255,230,230" fill="1" layer="-1.00" shape="61.624766,1442.782981 61.246160,1434.822535 73.850031,1434.233371 74.228573,1442.182713 61.624766,1442.782981"/>
    <poly id="171703039" type="building.yes" color="255,230,230" fill="1" layer="-1.00" shape="39.248840,1512.876171 39.062973,1502.338555 49.969116,1502.145582 50.154917,1512.672093 39.248840,1512.876171"/>
    <poly id="171703040" type="amenity.public_building" color="237,199,199" fill="1" layer="-1.00" shape="49.131030,1405.748659 48.493606,1392.881053 57.364453,1392.441754 58.001861,1405.309361 49.131030,1405.748659"/>
    <poly id="171703040#1" type="building.yes" color="255,230,230" fill="1" layer="-1.00" shape="49.131030,1405.748659 48.493606,1392.881053 57.364453,1392.441754 58.001861,1405.309361 49.131030,1405.748659"/>
    <poly id="171703041" type="amenity.public_building" color="237,199,199" fill="1" layer="-1.00" shape="22.932054,1413.683232 22.446101,1403.646672 37.348171,1403.580221 36.950754,1413.398624 22.932054,1413.683232"/>
    <poly id="171703041#1" type="building.yes" color="255,230,230" fill="1" layer="-1.00" shape="22.932054,1413.683232 22.446101,1403.646672 37.348171,1403.580221 36.950754,1413.398624 22.932054,1413.683232"/>
    <poly id="171703042" type="building.yes" color="255,230,230" fill="1" layer="-1.00" shape="50.419714,1458.424025 50.257726,1449.574232 64.725799,1449.309887 64.887769,1458.159681 50.419714,1458.424025"/>
    <poly id="171703044" type="building.yes" color="255,230,230" fill="1" layer="-1.00" shape="24.501792,1516.506565 23.507133,1504.151372 34.949217,1503.223069 35.943906,1515.589368 24.501792,1516.506565"/>
    <poly id="171703045" type="building.yes" color="255,230,230" fill="1" layer="-1.00" shape="50.180257,1441.357035 49.691871,1430.765244 60.090303,1430.285827 60.578674,1440.877618 50.180257,1441.357035"/>
    <poly id="171703046" type="amenity.public_building" color="237,199,199" fill="1" layer="-1.00" shape="16.265803,1371.692455 16.018153,1360.133477 30.265674,1359.836732 30.513300,1371.395710 16.265803,1371.692455"/>
    <poly id="171703046#1" type="building.yes" color="255,230,230" fill="1" layer="-1.00" shape="16.265803,1371.692455 16.018153,1360.133477 30.265674,1359.836732 30.513300,1371.395710 16.265803,1371.692455"/>
    <poly id="171703047" type="building.yes" color="255,230,230" fill="1" layer="-1.00" shape="61.333972,1487.547674 60.830757,1475.456802 75.526001,1474.847219 76.029190,1486.938092 61.333972,1487.547674"/>
    <poly id="171703048" type="landuse.residential" color="235,235,227" fill="1" layer="-3.00" shape="75.607621,1386.752585 79.989537,1490.129743 59.979486,1491.606955 44.871905,1474.850521 41.549996,1389.447307 75.607621,1386.752585"/>
    <poly id="172278256" type="shop.car_repair" color="237,199,255" fill="1" layer="-1.00" shape="533.517899,-5.976431"/>
    <poly id="172278598" type="amenity.parking" color="184,184,179" fill="1" layer="-1.00" shape="609.673044,41.185153 639.244740,10.817655 647.464880,10.659597 648.243544,39.262039 609.673044,41.185153"/>
    <poly id="173832840" type="building.yes" color="255,230,230" fill="0" layer="-1.00" shape="-1.011336,1436.388308 -0.749408,1445.648532"/>
    <poly id="173957901" type="building.yes" color="255,230,230" fill="1" layer="-1.00" shape="50.493595,1475.003144 49.895182,1467.221354 59.989937,1466.443460 60.596509,1474.225214 50.493595,1475.003144"/>
    <poly id="173960143" type="building.yes" color="255,230,230" fill="1" layer="-1.00" shape="15.594080,1395.104341 14.790715,1381.682239 28.178110,1380.889610 28.981450,1394.311715 15.594080,1395.104341"/>
    <poly id="173960144" type="building.yes" color="255,230,230" fill="1" layer="-1.00" shape="30.612541,1479.766883 30.101301,1471.385048 40.215061,1471.206699 40.618645,1479.266975 30.612541,1479.766883"/>
    <poly id="173960145" type="building.yes" color="255,230,230" fill="1" layer="-1.00" shape="26.749770,1423.349579 26.451832,1415.166680 36.164553,1414.812437 36.462430,1422.984232 26.749770,1423.349579"/>
    <poly id="173960146" type="building.yes" color="255,230,230" fill="1" layer="-1.00" shape="48.468283,1381.698646 47.321829,1371.942649 57.472084,1370.753628 58.618523,1380.509627 48.468283,1381.698646"/>
    <poly id="173960148" type="building.yes" color="255,230,230" fill="1" layer="-1.00" shape="27.966122,1456.103277 27.516871,1448.798330 35.733801,1448.306395 36.174825,1455.600274 27.966122,1456.103277"/>
    <poly id="173960149" type="building.yes" color="255,230,230" fill="1" layer="-1.00" shape="72.237450,1372.997658 71.742814,1360.995587 89.486586,1358.728954 90.277140,1371.140586 91.126530,1382.086124 72.728227,1384.133572 72.237450,1372.997658"/>
    <poly id="173960150" type="building.yes" color="255,230,230" fill="1" layer="-1.00" shape="26.816922,1438.407371 26.725215,1430.667743 37.533729,1430.541816 37.625374,1438.270339 26.816922,1438.407371"/>
    <poly id="173960151" type="building.yes" color="255,230,230" fill="1" layer="-1.00" shape="27.341718,1493.795712 27.429055,1484.067528 39.978713,1484.167040 39.899578,1493.906291 27.341718,1493.795712"/>
    <poly id="173960537" type="building.yes" color="255,230,230" fill="1" layer="-1.00" shape="50.166225,1544.542786 49.740660,1520.547234 57.253366,1519.714214 58.137998,1544.063074 50.166225,1544.542786"/>
    <poly id="173970357" type="leisure.playground" color="207,245,201" fill="1" layer="-2.00" shape="114.209843,1448.800931 111.198156,1414.589374 124.560345,1413.652683 126.917433,1447.656163 114.209843,1448.800931"/>
    <poly id="173970359" type="amenity.parking" color="184,184,179" fill="1" layer="-1.00" shape="141.861496,1407.412638 141.626351,1404.137771 125.192224,1405.088084 125.648904,1408.572957 141.861496,1407.412638"/>
    <poly id="173975213" type="landuse.residential" color="235,235,227" fill="1" layer="-3.00" shape="65.438757,1543.342054 159.675941,1535.160702 157.576663,1492.938521 94.700382,1496.704928 94.899622,1491.906774 65.326147,1494.214973 62.384881,1496.038155 62.126693,1500.436801 65.438757,1543.342054"/>
    <poly id="173975214" type="landuse.forest" color="140,196,107" fill="1" layer="-3.00" shape="92.685742,1536.013737 91.346110,1515.875614 65.070839,1517.602793 66.638148,1541.149068 92.905110,1539.410826 92.685742,1536.013737"/>
    <poly id="173975215" type="building.yes" color="255,230,230" fill="1" layer="-1.00" shape="65.021063,1510.096178 63.830307,1495.887354 66.737797,1495.652308 93.076485,1493.469557 94.258962,1507.667318 65.021063,1510.096178"/>
    <poly id="173975216" type="landuse.forest" color="140,196,107" fill="1" layer="-3.00" shape="150.528615,1534.013115 149.126950,1514.585964 141.874321,1509.598820 147.502766,1494.726715 156.926919,1493.807580 158.852695,1533.754050 150.528615,1534.013115"/>
    <poly id="173975217" type="landuse.forest" color="140,196,107" fill="1" layer="-3.00" shape="109.035094,1516.074533 108.517216,1498.831102 134.807329,1496.748670 135.540469,1514.646328 109.035094,1516.074533"/>
    <poly id="173978888" type="landuse.residential" color="235,235,227" fill="1" layer="-3.00" shape="174.591548,1541.890615 169.223157,1460.749562 255.851567,1455.435040 258.659566,1454.867372 264.026907,1536.008489 174.591548,1541.890615"/>
    <poly id="173978894" type="amenity.parking" color="184,184,179" fill="1" layer="-1.00" shape="304.929814,1490.675549 306.245648,1464.895531 345.258306,1466.866464 344.077915,1490.047356 343.724906,1497.067137 320.051020,1495.872408 320.276594,1491.451707 304.929814,1490.675549"/>
    <poly id="174648264" type="building.yes" color="255,230,230" fill="0" layer="-1.00" shape="4.828778,1531.241554 4.691042,1522.347232"/>
    <poly id="174648266" type="building.yes" color="255,230,230" fill="0" layer="-1.00" shape="-2.559026,1395.329713 -2.821692,1387.735211"/>
    <poly id="174648269" type="building.yes" color="255,230,230" fill="0" layer="-1.00" shape="-0.168823,1429.288588 -0.510336,1416.841645"/>
    <poly id="174648275" type="amenity.veterinary" color="237,199,199" fill="0" layer="-1.00" shape="3.359474,1515.057329 3.233574,1506.984709"/>
    <poly id="174648275#1" type="building.yes" color="255,230,230" fill="0" layer="-1.00" shape="3.359474,1515.057329 3.233574,1506.984709"/>
    <poly id="174648284" type="building.yes" color="255,230,230" fill="1" layer="-1.00" shape="654.279297,1054.488542 652.666716,1066.899615 669.008878,1069.015888 670.621487,1056.604819 654.279297,1054.488542"/>
    <poly id="174648287" type="building.yes" color="255,230,230" fill="0" layer="-1.00" shape="14.028669,1379.353633 13.558883,1365.619108"/>
    <poly id="174648291" type="building.yes" color="255,230,230" fill="1" layer="-1.00" shape="-3.398568,1260.332580"/>
    <poly id="174648296" type="building.yes" color="255,230,230" fill="0" layer="-1.00" shape="3.997147,1485.859993 3.744140,1476.766301"/>
    <poly id="174648302" type="amenity.fuel" color="237,199,199" fill="1" layer="-1.00" shape="985.837396,1753.470685 973.476495,1753.446371 973.460156,1762.896608 985.821040,1762.920922 985.837396,1753.470685"/>
    <poly id="174648302#1" type="building.yes" color="255,230,230" fill="1" layer="-1.00" shape="985.837396,1753.470685 973.476495,1753.446371 973.460156,1762.896608 985.821040,1762.920922 985.837396,1753.470685"/>
    <poly id="174648328" type="building.yes" color="255,230,230" fill="0" layer="-1.00" shape="3.932877,1361.619919 3.692498,1353.525603"/>