<?xml version="1.0" encoding="UTF-8"?>

<!-- generated on 2025-05-05 01:08:59.197485 by randomTrips.py v1_22_0+0002-63e50f52594
<configuration>
    <net-file value="osm.net.xml.gz"/>
    <output-trip-file value="osm.passenger.trips.xml"/>
    <route-file value="osm.passenger.rou.xml"/>
    <prefix value="veh"/>
    <trip-attributes value="departLane=&quot;best&quot;"/>
    <fringe-start-attributes value="departSpeed=&quot;max&quot;"/>
    <vehicle-class value="passenger"/>
    <lanes value="True"/>
    <fringe-factor value="5"/>
    <allow-fringe.min-length value="1000.0"/>
    <via-edge-types value="highway.motorway,highway.motorway_link,highway.trunk_link,highway.primary_link,highway.secondary_link,highway.tertiary_link"/>
    <min-distance value="300.0"/>
    <min-distance.fringe value="10.0"/>
    <remove-loops value="True"/>
    <validate value="True"/>
    <insertion-density value="40.0"/>
</configuration>
-->

<!-- generated on 2025-05-05 01:08:59 by Eclipse SUMO duarouter Version 1.22.0
<duarouterConfiguration xmlns:xsi="http://www.w3.org/2001/XMLSchema-instance" xsi:noNamespaceSchemaLocation="http://sumo.dlr.de/xsd/duarouterConfiguration.xsd">

    <input>
        <net-file value="osm.net.xml.gz"/>
        <route-files value="osm.passenger.trips.xml"/>
    </input>

    <output>
        <output-file value="osm.passenger.rou.xml"/>
        <alternatives-output value="NUL"/>
    </output>

    <processing>
        <remove-loops value="true"/>
    </processing>

    <time>
        <begin value="0.0"/>
        <end value="3600.0"/>
    </time>

    <report>
        <no-warnings value="true"/>
        <ignore-errors value="true"/>
        <no-step-log value="true"/>
    </report>

</duarouterConfiguration>
-->

<routes xmlns:xsi="http://www.w3.org/2001/XMLSchema-instance" xsi:noNamespaceSchemaLocation="http://sumo.dlr.de/xsd/routes_file.xsd">
    <vType id="veh_passenger" vClass="passenger"/>
    <vehicle id="veh0" type="veh_passenger" depart="0.00" departLane="best">
        <route edges="270077326#6 270077326#7 270077326#12 174648249#0"/>
    </vehicle>
    <vehicle id="veh1" type="veh_passenger" depart="3.07" departLane="best">
        <route edges="22774123#0 22774123#2"/>
    </vehicle>
    <vehicle id="veh2" type="veh_passenger" depart="6.13" departLane="best">
        <route edges="270077330#1 371448110"/>
    </vehicle>
    <vehicle id="veh3" type="veh_passenger" depart="9.20" departLane="best">
        <route edges="637438872#0 -637438868#2 -1321696849 -50831944#2 -50831944#1 -51095934#5 -51095934#0"/>
    </vehicle>
    <vehicle id="veh4" type="veh_passenger" depart="12.27" departLane="best">
        <route edges="22774209 637438872#0 -637438868#2 -1321696849 -50831944#2 -50831944#1"/>
    </vehicle>
    <vehicle id="veh5" type="veh_passenger" depart="15.34" departLane="best" departSpeed="max">
        <route edges="22771415 270077328#0 270077326#0 270077326#0-AddedOffRampEdge 270077326#1 270077326#2 270077326#4 270077326#6 270077326#7 270077326#12"/>
    </vehicle>
    <vehicle id="veh6" type="veh_passenger" depart="18.40" departLane="best">
        <route edges="51095934#6 50831944#2 50831944#3 637438868#0 22774123#0"/>
    </vehicle>
    <vehicle id="veh7" type="veh_passenger" depart="21.47" departLane="best" departSpeed="max">
        <route edges="22771415 270077328#0 270077326#0 270077326#0-AddedOffRampEdge 270077326#1 270077326#2 270077326#4 270077326#6 270077326#7"/>
    </vehicle>
    <vehicle id="veh8" type="veh_passenger" depart="24.54" departLane="best" departSpeed="max">
        <route edges="51095934#0 51095934#1 51095934#6 50831944#2 50831944#3"/>
    </vehicle>
    <vehicle id="veh9" type="veh_passenger" depart="27.60" departLane="best" departSpeed="max">
        <route edges="51095934#0 51095934#1 51095934#6 50831944#2 50831944#3 637438868#0 22774123#0 22774123#2 22774123#3 22774123#6 22774123#7 22774123#8 270077329 270077330#0 270077330#1 371448110"/>
    </vehicle>
    <vehicle id="veh11" type="veh_passenger" depart="33.74" departLane="best" departSpeed="max">
        <route edges="-627140112#12 -627140112#10 -627140112#9 -174648249#3 -637438868#2 -1321696849 -50831944#2 -50831944#1 -51095934#5 -51095934#0"/>
    </vehicle>
    <vehicle id="veh13" type="veh_passenger" depart="39.87" departLane="best" departSpeed="max">
        <route edges="51095934#0 51095934#1 51095934#6 50831944#2 50831944#3 637438868#0 22774123#0 22774123#2 22774123#3 22774123#6 22774123#7 22774123#8 270077329 270077330#0 270077330#1 371448110"/>
    </vehicle>
    <vehicle id="veh14" type="veh_passenger" depart="42.94" departLane="best">
        <route edges="270077326#0-AddedOffRampEdge 270077326#1 270077326#2 270077326#4 270077326#6 270077326#7 270077326#12 62102216#0 637438871#0 637438871#2"/>
    </vehicle>
    <vehicle id="veh16" type="veh_passenger" depart="49.08" departLane="best" departSpeed="max">
        <route edges="51095934#0 51095934#1 51095934#6 50831944#2 50831944#3 637438868#0 22774123#0 22774123#2 22774123#3 22774123#6 22774123#7 22774123#8 270077329"/>
    </vehicle>
    <vehicle id="veh19" type="veh_passenger" depart="58.28" departLane="best" departSpeed="max">
        <route edges="22771415 270077328#0 270077326#0 270077326#0-AddedOffRampEdge 270077326#1 270077326#2 270077326#4 270077326#6 270077326#7 270077326#12 -637438868#2 -1321696849 -50831944#2 50831944#2 50831944#3 637438868#0 22774123#0 22774123#2 22774123#3 22774123#6 22774123#7"/>
    </vehicle>
    <vehicle id="veh20" type="veh_passenger" depart="61.34" departLane="best">
        <route edges="-627140112#10 -627140112#9 -174648249#3 22774123#0 22774123#2"/>
    </vehicle>
    <vehicle id="veh21" type="veh_passenger" depart="64.41" departLane="best" departSpeed="max">
        <route edges="-627140112#12 -627140112#10 -627140112#9 -174648249#3 22774123#0 22774123#2 22774123#3 22774123#6 22774123#7"/>
    </vehicle>
    <vehicle id="veh22" type="veh_passenger" depart="67.48" departLane="best">
        <route edges="270077326#6 270077326#7 270077326#12 62102216#0 637438871#0 637438871#2 22774206 22774290#0 22774290#6"/>
    </vehicle>
    <vehicle id="veh24" type="veh_passenger" depart="73.61" departLane="best" departSpeed="max">
        <route edges="22771415 270077328#0 270077326#0 270077326#0-AddedOffRampEdge 270077326#1 270077326#2 270077326#4 270077326#6 270077326#7 270077326#12 -637438868#2"/>
    </vehicle>
    <vehicle id="veh26" type="veh_passenger" depart="79.75" departLane="best">
        <route edges="-174648249#3 62102216#0 637438871#0 637438871#2 22774206 22774290#0 22774290#6"/>
    </vehicle>
    <vehicle id="veh27" type="veh_passenger" depart="82.81" departLane="best">
        <route edges="637438872#0 22774123#0 22774123#2 22774123#3 22774123#6 22774123#7 22774123#8 270077329 270077330#0"/>
    </vehicle>
    <vehicle id="veh28" type="veh_passenger" depart="85.88" departLane="best">
        <route edges="270077326#1 270077326#2 270077326#4 270077326#6 270077326#7 270077326#12 -637438868#2 -1321696849 -50831944#2 50831944#2 50831944#3 637438868#0 22774123#0 22774123#2 22774123#3 22774123#6 22774123#7 22774123#8 270077329 270077330#0 270077330#1 371448110"/>
    </vehicle>
    <vehicle id="veh29" type="veh_passenger" depart="88.95" departLane="best" departSpeed="max">
        <route edges="51095934#0 51095934#1 51095934#6 50831944#2"/>
    </vehicle>
    <vehicle id="veh30" type="veh_passenger" depart="92.02" departLane="best" departSpeed="max">
        <route edges="22771415 270077328#0 270077326#0 270077326#0-AddedOffRampEdge 270077326#1 270077326#2 270077326#4 270077326#6 270077326#7 270077326#12 -637438868#2 -1321696849 -50831944#2 -50831944#1"/>
    </vehicle>
    <vehicle id="veh31" type="veh_passenger" depart="95.08" departLane="best">
        <route edges="22774123#3 22774123#6"/>
    </vehicle>
    <vehicle id="veh32" type="veh_passenger" depart="98.15" departLane="best" departSpeed="max">
        <route edges="22771415 270077328#0 270077326#0 270077326#0-AddedOffRampEdge 270077326#1 270077326#2 270077326#4 270077326#6 270077326#7 270077326#12 -637438868#2"/>
    </vehicle>
    <vehicle id="veh33" type="veh_passenger" depart="101.22" departLane="best">
        <route edges="51095934#6 50831944#2 50831944#3 637438868#0 22774123#0 22774123#2 22774123#3 22774123#6 22774123#7 22774123#8"/>
    </vehicle>
    <vehicle id="veh34" type="veh_passenger" depart="104.28" departLane="best">
        <route edges="270077326#7 270077326#12 62102216#0 637438871#0 637438871#2 22774206 22774290#0 22774290#6"/>
    </vehicle>
    <vehicle id="veh36" type="veh_passenger" depart="110.42" departLane="best" departSpeed="max">
        <route edges="22771415 270077328#0 270077326#0 270077326#0-AddedOffRampEdge 270077326#1 270077326#2 270077326#4 270077326#6 270077326#7 270077326#12 -637438868#2 -1321696849 -50831944#2 50831944#2 50831944#3 637438868#0 22774123#0 22774123#2 22774123#3"/>
    </vehicle>
    <vehicle id="veh37" type="veh_passenger" depart="113.49" departLane="best">
        <route edges="270077326#12 174648249#0 627140112#0 627140112#10 627140112#11"/>
    </vehicle>
    <vehicle id="veh38" type="veh_passenger" depart="116.55" departLane="best">
        <route edges="22774206 22774290#0 22774293#7 22774209 637438872#0 22774123#0 22774123#2"/>
    </vehicle>
    <vehicle id="veh39" type="veh_passenger" depart="119.62" departLane="best" departSpeed="max">
        <route edges="-627140112#12 -627140112#10 -627140112#9 -174648249#3 -637438868#2 -1321696849 -50831944#2"/>
    </vehicle>
    <vehicle id="veh40" type="veh_passenger" depart="122.69" departLane="best" departSpeed="max">
        <route edges="-627140112#12 -627140112#10 -627140112#9 -174648249#3 22774123#0 22774123#2 22774123#3 22774123#6 22774123#7 22774123#8 270077329"/>
    </vehicle>
    <vehicle id="veh41" type="veh_passenger" depart="125.76" departLane="best" departSpeed="max">
        <route edges="51095934#0 51095934#1 51095934#6 50831944#2 50831944#3 637438868#0 62102216#0 637438871#0 637438871#2 22774206 22774290#0"/>
    </vehicle>
    <vehicle id="veh44" type="veh_passenger" depart="134.96" departLane="best">
        <route edges="637438871#2 22774206 22774290#0 22774293#7 22774209 637438872#0 174648249#0 627140112#0"/>
    </vehicle>
    <vehicle id="veh45" type="veh_passenger" depart="138.02" departLane="best">
        <route edges="50831944#3 637438868#0 22774123#0 22774123#2 22774123#3 22774123#6 22774123#7 22774123#8 270077329 270077330#0 270077330#1 371448110"/>
    </vehicle>
    <vehicle id="veh46" type="veh_passenger" depart="141.09" departLane="best">
        <route edges="270077328#0 270077326#0 270077326#0-AddedOffRampEdge 270077326#1 270077326#2 270077326#4"/>
    </vehicle>
    <vehicle id="veh47" type="veh_passenger" depart="144.16" departLane="best" departSpeed="max">
        <route edges="22771415 270077328#0 270077326#0 270077326#0-AddedOffRampEdge 270077326#1 270077326#2 270077326#4 270077326#6 270077326#7 270077326#12 -637438868#2 -1321696849 -50831944#2 50831944#2 50831944#3 637438868#0 22774123#0 22774123#2 22774123#3 22774123#6 22774123#7 22774123#8 270077329 270077330#0"/>
    </vehicle>
    <vehicle id="veh49" type="veh_passenger" depart="150.29" departLane="best" departSpeed="max">
        <route edges="22774293#4 22774293#5 22774293#7 22774209 637438872#0 -637438868#2 -1321696849 -50831944#2 50831944#2 50831944#3 637438868#0 62102216#0 637438871#0"/>
    </vehicle>
    <vehicle id="veh50" type="veh_passenger" depart="153.36" departLane="best">
        <route edges="51095934#6 50831944#2 50831944#3 637438868#0 22774123#0 22774123#2 22774123#3 22774123#6"/>
    </vehicle>
    <vehicle id="veh51" type="veh_passenger" depart="156.43" departLane="best">
        <route edges="22774293#7 22774209 637438872#0 -637438868#2"/>
    </vehicle>
    <vehicle id="veh52" type="veh_passenger" depart="159.49" departLane="best">
        <route edges="627140112#0 627140112#10"/>
    </vehicle>
    <vehicle id="veh53" type="veh_passenger" depart="162.56" departLane="best">
        <route edges="22774123#2 22774123#3 22774123#6 22774123#7 22774123#8 270077329 270077330#0"/>
    </vehicle>
    <vehicle id="veh54" type="veh_passenger" depart="165.63" departLane="best">
        <route edges="270077326#4 270077326#6 270077326#7 270077326#12 174648249#0 627140112#0 627140112#10"/>
    </vehicle>
    <vehicle id="veh57" type="veh_passenger" depart="174.83" departLane="best">
        <route edges="50831944#3 637438868#0 62102216#0 637438871#0 637438871#2 22774206"/>
    </vehicle>
    <vehicle id="veh59" type="veh_passenger" depart="180.97" departLane="best">
        <route edges="51095934#6 50831944#2 50831944#3 637438868#0 62102216#0 637438871#0"/>
    </vehicle>
    <vehicle id="veh62" type="veh_passenger" depart="190.17" departLane="best">
        <route edges="-1321696849 -50831944#2 -50831944#1 -51095934#5 -51095934#0"/>
    </vehicle>
    <vehicle id="veh64" type="veh_passenger" depart="196.30" departLane="best" departSpeed="max">
        <route edges="22771415 270077328#0 270077326#0 270077326#0-AddedOffRampEdge 270077326#1 270077326#2 270077326#4 270077326#6 270077326#7 270077326#12 174648249#0 627140112#0 627140112#10"/>
    </vehicle>
    <vehicle id="veh65" type="veh_passenger" depart="199.37" departLane="best">
        <route edges="22774209 637438872#0 22774123#0"/>
    </vehicle>
    <vehicle id="veh66" type="veh_passenger" depart="202.44" departLane="best">
        <route edges="270077326#0-AddedOffRampEdge 270077326#1 270077326#2 270077326#4 270077326#6 270077326#7 270077326#12 -637438868#2 -1321696849 -50831944#2 50831944#2 50831944#3 637438868#0 22774123#0 22774123#2 22774123#3 22774123#6 22774123#7 22774123#8 270077329 270077330#0 270077330#1 371448110"/>
    </vehicle>
    <vehicle id="veh67" type="veh_passenger" depart="205.50" departLane="best" departSpeed="max">
        <route edges="22771415 270077328#0 270077326#0 270077326#0-AddedOffRampEdge 270077326#1 270077326#2 270077326#4 270077326#6 270077326#7 270077326#12 -637438868#2 -1321696849 -50831944#2 50831944#2 50831944#3 637438868#0 22774123#0 22774123#2 22774123#3 22774123#6 22774123#7 22774123#8"/>
    </vehicle>
    <vehicle id="veh68" type="veh_passenger" depart="208.57" departLane="best">
        <route edges="637438872#0 22774123#0 22774123#2 22774123#3 22774123#6 22774123#7 22774123#8 270077329 270077330#0"/>
    </vehicle>
    <vehicle id="veh70" type="veh_passenger" depart="214.70" departLane="best" departSpeed="max">
        <route edges="-627140112#12 -627140112#10 -627140112#9 -174648249#3 22774123#0 22774123#2"/>
    </vehicle>
    <vehicle id="veh72" type="veh_passenger" depart="220.84" departLane="best" departSpeed="max">
        <route edges="22771415 270077328#0 270077326#0 270077326#0-AddedOffRampEdge 270077326#1 270077326#2 270077326#4 270077326#6 270077326#7 270077326#12 -637438868#2 -1321696849 -50831944#2 50831944#2 50831944#3 637438868#0 22774123#0 22774123#2"/>
    </vehicle>
    <vehicle id="veh74" type="veh_passenger" depart="226.97" departLane="best" departSpeed="max">
        <route edges="22771415 270077328#0 270077326#0 270077326#0-AddedOffRampEdge 270077326#1 270077326#2 270077326#4 270077326#6 270077326#7 270077326#12 174648249#0 627140112#0 627140112#10 627140112#11"/>
    </vehicle>
    <vehicle id="veh75" type="veh_passenger" depart="230.04" departLane="best" departSpeed="max">
        <route edges="22771415 270077328#0 270077326#0 270077326#0-AddedOffRampEdge 270077326#1 270077326#2 270077326#4 270077326#6 270077326#7 270077326#12 -637438868#2 -1321696849 -50831944#2 -50831944#1 -51095934#5 -51095934#0"/>
    </vehicle>
    <vehicle id="veh77" type="veh_passenger" depart="236.17" departLane="best" departSpeed="max">
        <route edges="22774293#4 22774293#5 22774293#7 22774209 637438872#0 -637438868#2 -1321696849 -50831944#2"/>
    </vehicle>
    <vehicle id="veh78" type="veh_passenger" depart="239.24" departLane="best" departSpeed="max">
        <route edges="51095934#0 51095934#1 51095934#6 50831944#2 50831944#3 637438868#0 174648249#0"/>
    </vehicle>
    <vehicle id="veh81" type="veh_passenger" depart="248.44" departLane="best">
        <route edges="637438872#0 -637438868#2 -1321696849 -50831944#2 -50831944#1 -51095934#5 -51095934#0"/>
    </vehicle>
    <vehicle id="veh82" type="veh_passenger" depart="251.51" departLane="best">
        <route edges="51095934#1 51095934#6 50831944#2 50831944#3 637438868#0 22774123#0 22774123#2 22774123#3"/>
    </vehicle>
    <vehicle id="veh83" type="veh_passenger" depart="254.58" departLane="best" departSpeed="max">
        <route edges="22771415 270077328#0 270077326#0"/>
    </vehicle>
    <vehicle id="veh84" type="veh_passenger" depart="257.65" departLane="best">
        <route edges="22774209 637438872#0 22774123#0 22774123#2 22774123#3 22774123#6 22774123#7"/>
    </vehicle>
    <vehicle id="veh85" type="veh_passenger" depart="260.71" departLane="best" departSpeed="max">
        <route edges="22771415 270077328#0 270077326#0 270077326#0-AddedOffRampEdge 270077326#1 270077326#2 270077326#4 270077326#6 270077326#7 270077326#12 174648249#0 627140112#0 627140112#10 627140112#11"/>
    </vehicle>
    <vehicle id="veh86" type="veh_passenger" depart="263.78" departLane="best" departSpeed="max">
        <route edges="22774293#4 22774293#5 22774293#7 22774209 637438872#0 174648249#0 627140112#0"/>
    </vehicle>
    <vehicle id="veh87" type="veh_passenger" depart="266.85" departLane="best">
        <route edges="270077326#1 270077326#2 270077326#4 270077326#6 270077326#7 270077326#12 -637438868#2 -1321696849 -50831944#2"/>
    </vehicle>
    <vehicle id="veh88" type="veh_passenger" depart="269.91" departLane="best">
        <route edges="637438872#0 -637438868#2 -1321696849 -50831944#2 -50831944#1"/>
    </vehicle>
    <vehicle id="veh89" type="veh_passenger" depart="272.98" departLane="best">
        <route edges="637438871#2 22774206 22774290#0 22774293#7 22774209 637438872#0 174648249#0 627140112#0 627140112#10 627140112#11"/>
    </vehicle>
    <vehicle id="veh90" type="veh_passenger" depart="276.05" departLane="best" departSpeed="max">
        <route edges="51095934#0 51095934#1 51095934#6 50831944#2 50831944#3 637438868#0 174648249#0 627140112#0"/>
    </vehicle>
    <vehicle id="veh91" type="veh_passenger" depart="279.12" departLane="best">
        <route edges="22774293#5 22774293#7 22774209 637438872#0 22774123#0"/>
    </vehicle>
    <vehicle id="veh92" type="veh_passenger" depart="282.18" departLane="best">
        <route edges="22774206 22774290#0 22774293#7 22774209 637438872#0 -637438868#2 -1321696849 -50831944#2 -50831944#1 -51095934#5 -51095934#0"/>
    </vehicle>
    <vehicle id="veh94" type="veh_passenger" depart="288.32" departLane="best" departSpeed="max">
        <route edges="22771415 270077328#0 270077326#0 270077326#0-AddedOffRampEdge 270077326#1 270077326#2 270077326#4 270077326#6 270077326#7 270077326#12 -637438868#2 -1321696849 -50831944#2"/>
    </vehicle>
    <vehicle id="veh95" type="veh_passenger" depart="291.38" departLane="best" departSpeed="max">
        <route edges="22774293#4 22774293#5 22774293#7"/>
    </vehicle>
    <vehicle id="veh96" type="veh_passenger" depart="294.45" departLane="best">
        <route edges="270077326#1 270077326#2 270077326#4 270077326#6 270077326#7 270077326#12 -637438868#2 -1321696849 -50831944#2 50831944#2 50831944#3 637438868#0 22774123#0 22774123#2 22774123#3 22774123#6 22774123#7 22774123#8 270077329 270077330#0 270077330#1 371448110"/>
    </vehicle>
    <vehicle id="veh97" type="veh_passenger" depart="297.52" departLane="best">
        <route edges="637438868#0 22774123#0 22774123#2 22774123#3 22774123#6 22774123#7 22774123#8"/>
    </vehicle>
    <vehicle id="veh99" type="veh_passenger" depart="303.65" departLane="best">
        <route edges="270077326#0-AddedOffRampEdge 270077326#1 270077326#2 270077326#4 270077326#6 270077326#7 270077326#12 -637438868#2 -1321696849 -50831944#2 50831944#2 50831944#3 637438868#0 22774123#0 22774123#2 22774123#3 22774123#6 22774123#7 22774123#8 270077329 270077330#0 270077330#1 371448110"/>
    </vehicle>
    <vehicle id="veh101" type="veh_passenger" depart="309.79" departLane="best">
        <route edges="22774293#7 22774209 637438872#0"/>
    </vehicle>
    <vehicle id="veh102" type="veh_passenger" depart="312.85" departLane="best">
        <route edges="637438868#0 62102216#0 637438871#0"/>
    </vehicle>
    <vehicle id="veh103" type="veh_passenger" depart="315.92" departLane="best">
        <route edges="-627140112#10 -627140112#9 -174648249#3"/>
    </vehicle>
    <vehicle id="veh104" type="veh_passenger" depart="318.99" departLane="best">
        <route edges="270077326#2 270077326#4 270077326#6 270077326#7 270077326#12 -637438868#2 -1321696849 -50831944#2 50831944#2 50831944#3 637438868#0 22774123#0 22774123#2 22774123#3 22774123#6 22774123#7 22774123#8 270077329 270077330#0 270077330#1 371448110"/>
    </vehicle>
    <vehicle id="veh105" type="veh_passenger" depart="322.06" departLane="best" departSpeed="max">
        <route edges="22771415 270077328#0 270077326#0 270077326#0-AddedOffRampEdge 270077326#1 270077326#2 270077326#4 270077326#6 270077326#7 270077326#12 -637438868#2 -1321696849 -50831944#2 -50831944#1 -51095934#5 -51095934#0"/>
    </vehicle>
    <vehicle id="veh106" type="veh_passenger" depart="325.12" departLane="best">
        <route edges="637438872#0 22774123#0 22774123#2 22774123#3"/>
    </vehicle>
    <vehicle id="veh107" type="veh_passenger" depart="328.19" departLane="best">
        <route edges="270077326#2 270077326#4 270077326#6 270077326#7 270077326#12 -637438868#2 -1321696849 -50831944#2 50831944#2 50831944#3 637438868#0 22774123#0 22774123#2 22774123#3 22774123#6 22774123#7 22774123#8 270077329"/>
    </vehicle>
    <vehicle id="veh109" type="veh_passenger" depart="334.33" departLane="best">
        <route edges="270077326#0 270077326#0-AddedOffRampEdge 270077326#1 270077326#2 270077326#4 270077326#6 270077326#7 270077326#12 -637438868#2"/>
    </vehicle>
    <vehicle id="veh110" type="veh_passenger" depart="337.39" departLane="best" departSpeed="max">
        <route edges="22771415 270077328#0 270077326#0 270077326#0-AddedOffRampEdge 270077326#1 270077326#2 270077326#4 270077326#6 270077326#7 270077326#12 62102216#0 637438871#0 637438871#2 22774206 22774290#0 22774290#6"/>
    </vehicle>
    <vehicle id="veh111" type="veh_passenger" depart="340.46" departLane="best">
        <route edges="22774123#3 22774123#6 22774123#7 22774123#8 270077329 270077330#0 270077330#1 371448110"/>
    </vehicle>
    <vehicle id="veh113" type="veh_passenger" depart="346.59" departLane="best">
        <route edges="-627140112#10 -627140112#9 -174648249#3 22774123#0"/>
    </vehicle>
    <vehicle id="veh114" type="veh_passenger" depart="349.66" departLane="best" departSpeed="max">
        <route edges="22771415 270077328#0 270077326#0 270077326#0-AddedOffRampEdge 270077326#1 270077326#2 270077326#4 270077326#6 270077326#7 270077326#12 -637438868#2"/>
    </vehicle>
    <vehicle id="veh115" type="veh_passenger" depart="352.73" departLane="best">
        <route edges="51095934#6 50831944#2 50831944#3 637438868#0 174648249#0 627140112#0 627140112#10 627140112#11"/>
    </vehicle>
    <vehicle id="veh117" type="veh_passenger" depart="358.86" departLane="best" departSpeed="max">
        <route edges="51095934#0 51095934#1 51095934#6 50831944#2 50831944#3 637438868#0 22774123#0 22774123#2 22774123#3 22774123#6 22774123#7 22774123#8 270077329 270077330#0 270077330#1 371448110"/>
    </vehicle>
    <vehicle id="veh118" type="veh_passenger" depart="361.93" departLane="best">
        <route edges="270077326#4 270077326#6 270077326#7 270077326#12 62102216#0"/>
    </vehicle>
    <vehicle id="veh119" type="veh_passenger" depart="365.00" departLane="best">
        <route edges="270077326#7 270077326#12 -637438868#2 -1321696849"/>
    </vehicle>
    <vehicle id="veh120" type="veh_passenger" depart="368.06" departLane="best" departSpeed="max">
        <route edges="51095934#0 51095934#1 51095934#6 50831944#2 50831944#3 637438868#0 22774123#0 22774123#2 22774123#3 22774123#6 22774123#7 22774123#8"/>
    </vehicle>
    <vehicle id="veh121" type="veh_passenger" depart="371.13" departLane="best">
        <route edges="270077326#7 270077326#12 -637438868#2"/>
    </vehicle>
    <vehicle id="veh122" type="veh_passenger" depart="374.20" departLane="best">
        <route edges="-627140112#9 -174648249#3 -637438868#2 -1321696849 -50831944#2 -50831944#1 -51095934#5 -51095934#0"/>
    </vehicle>
    <vehicle id="veh126" type="veh_passenger" depart="386.47" departLane="best">
        <route edges="270077326#6 270077326#7 270077326#12 -637438868#2 -1321696849 -50831944#2 50831944#2 50831944#3 637438868#0 22774123#0 22774123#2 22774123#3 22774123#6"/>
    </vehicle>
    <vehicle id="veh127" type="veh_passenger" depart="389.53" departLane="best">
        <route edges="22774293#5 22774293#7 22774209 637438872#0 174648249#0 627140112#0 627140112#10 627140112#11"/>
    </vehicle>
    <vehicle id="veh128" type="veh_passenger" depart="392.60" departLane="best">
        <route edges="22774293#7 22774209 637438872#0 22774123#0 22774123#2 22774123#3 22774123#6 22774123#7"/>
    </vehicle>
    <vehicle id="veh129" type="veh_passenger" depart="395.67" departLane="best">
        <route edges="50831944#3 637438868#0 22774123#0 22774123#2 22774123#3 22774123#6 22774123#7 22774123#8 270077329 270077330#0 270077330#1 371448110"/>
    </vehicle>
    <vehicle id="veh130" type="veh_passenger" depart="398.74" departLane="best">
        <route edges="270077326#6 270077326#7 270077326#12 -637438868#2 -1321696849 -50831944#2 50831944#2 50831944#3 637438868#0 22774123#0 22774123#2 22774123#3 22774123#6"/>
    </vehicle>
    <vehicle id="veh132" type="veh_passenger" depart="404.87" departLane="best">
        <route edges="22774293#7 22774209 637438872#0 -637438868#2 -1321696849"/>
    </vehicle>
    <vehicle id="veh135" type="veh_passenger" depart="414.07" departLane="best">
        <route edges="-637438868#2 -1321696849 -50831944#2 -50831944#1 -51095934#5 -51095934#0"/>
    </vehicle>
    <vehicle id="veh137" type="veh_passenger" depart="420.21" departLane="best" departSpeed="max">
        <route edges="51095934#0 51095934#1 51095934#6 50831944#2 50831944#3 637438868#0 174648249#0 627140112#0"/>
    </vehicle>
    <vehicle id="veh138" type="veh_passenger" depart="423.27" departLane="best" departSpeed="max">
        <route edges="22771415 270077328#0 270077326#0 270077326#0-AddedOffRampEdge 270077326#1 270077326#2 270077326#4 270077326#6 270077326#7 270077326#12 -637438868#2 -1321696849 -50831944#2 -50831944#1 -51095934#5 -51095934#0"/>
    </vehicle>
    <vehicle id="veh139" type="veh_passenger" depart="426.34" departLane="best">
        <route edges="50831944#3 637438868#0 174648249#0 627140112#0 627140112#10 627140112#11"/>
    </vehicle>
    <vehicle id="veh140" type="veh_passenger" depart="429.41" departLane="best">
        <route edges="22774209 637438872#0 22774123#0 22774123#2 22774123#3 22774123#6 22774123#7 22774123#8 270077329"/>
    </vehicle>
    <vehicle id="veh141" type="veh_passenger" depart="432.48" departLane="best">
        <route edges="51095934#1 51095934#6 50831944#2 50831944#3 637438868#0 62102216#0 637438871#0 637438871#2"/>
    </vehicle>
    <vehicle id="veh142" type="veh_passenger" depart="435.54" departLane="best" departSpeed="max">
        <route edges="51095934#0 51095934#1 51095934#6 50831944#2 50831944#3 637438868#0 174648249#0 627140112#0 627140112#10 627140112#11"/>
    </vehicle>
    <vehicle id="veh143" type="veh_passenger" depart="438.61" departLane="best">
        <route edges="-174648249#3 22774123#0 22774123#2 22774123#3 22774123#6 22774123#7 22774123#8 270077329 270077330#0 270077330#1 371448110"/>
    </vehicle>
    <vehicle id="veh145" type="veh_passenger" depart="444.74" departLane="best" departSpeed="max">
        <route edges="51095934#0 51095934#1 51095934#6 50831944#2 50831944#3 637438868#0 174648249#0 627140112#0"/>
    </vehicle>
    <vehicle id="veh146" type="veh_passenger" depart="447.81" departLane="best" departSpeed="max">
        <route edges="51095934#0 51095934#1 51095934#6 50831944#2 50831944#3 637438868#0 22774123#0 22774123#2 22774123#3 22774123#6"/>
    </vehicle>
    <vehicle id="veh147" type="veh_passenger" depart="450.88" departLane="best">
        <route edges="51095934#1 51095934#6 50831944#2 50831944#3 637438868#0 174648249#0 627140112#0"/>
    </vehicle>
    <vehicle id="veh149" type="veh_passenger" depart="457.01" departLane="best" departSpeed="max">
        <route edges="22774293#4 22774293#5 22774293#7 22774209 637438872#0 22774123#0 22774123#2 22774123#3 22774123#6 22774123#7 22774123#8"/>
    </vehicle>
    <vehicle id="veh150" type="veh_passenger" depart="460.08" departLane="best" departSpeed="max">
        <route edges="51095934#0 51095934#1 51095934#6 50831944#2 50831944#3 637438868#0 22774123#0 22774123#2"/>
    </vehicle>
    <vehicle id="veh152" type="veh_passenger" depart="466.21" departLane="best">
        <route edges="637438871#2 22774206 22774290#0 22774293#7 22774209 637438872#0 22774123#0 22774123#2 22774123#3 22774123#6 22774123#7"/>
    </vehicle>
    <vehicle id="veh153" type="veh_passenger" depart="469.28" departLane="best">
        <route edges="270077326#6 270077326#7 270077326#12 62102216#0 637438871#0 637438871#2 22774206 22774290#0 22774290#6"/>
    </vehicle>
    <vehicle id="veh155" type="veh_passenger" depart="475.42" departLane="best">
        <route edges="-637438868#2 -1321696849 -50831944#2 -50831944#1 -51095934#5 -51095934#0"/>
    </vehicle>
    <vehicle id="veh156" type="veh_passenger" depart="478.48" departLane="best">
        <route edges="637438871#2 22774206 22774290#0 22774293#7 22774209 637438872#0 -637438868#2"/>
    </vehicle>