<?xml version="1.0" encoding="UTF-8"?>

<!-- generated on 2025-05-05 01:15:43 by Eclipse SUMO netedit Version 1.22.0
-->

<routes xmlns:xsi="http://www.w3.org/2001/XMLSchema-instance" xsi:noNamespaceSchemaLocation="http://sumo.dlr.de/xsd/routes_file.xsd">
    <!-- Vehicles, persons and containers (sorted by depart) -->
    <flow id="f_0" begin="0.00" from="51095934#0" to="22774290#6" end="3600.00" vehsPerHour="480"/>
    <flow id="f_1" begin="0.00" from="51095934#0" to="627140112#11" end="3600.00" vehsPerHour="480"/>
    <flow id="f_10" begin="0.00" from="22774293#4" to="371448110" end="3600.00" vehsPerHour="480"/>
    <flow id="f_11" begin="0.00" from="22774293#4" to="627140112#11" end="3600.00" vehsPerHour="480"/>
    <flow id="f_2" begin="0.00" from="51095934#0" to="371448110" end="3600.00" vehsPerHour="480"/>
    <flow id="f_3" begin="0.00" from="22771415" to="627140112#11" end="3600.00" vehsPerHour="480"/>
    <flow id="f_4" begin="0.00" from="22771415" to="22774290#6" end="3600.00" vehsPerHour="480"/>
    <flow id="f_5" begin="0.00" from="22771415" to="-51095934#0" end="3600.00" vehsPerHour="480"/>
    <flow id="f_6" begin="0.00" from="-627140112#12" to="22774290#6" end="3600.00" vehsPerHour="480"/>
    <flow id="f_7" begin="0.00" from="-627140112#12" to="-51095934#0" end="3600.00" vehsPerHour="480"/>
    <flow id="f_8" begin="0.00" from="-627140112#12" to="371448110" end="3600.00" vehsPerHour="480"/>
    <flow id="f_9" begin="0.00" from="22774293#4" to="-51095934#0" end="3600.00" vehsPerHour="480"/>
</routes>
