<?xml version="1.0" encoding="UTF-8"?>

<!-- generated on 2025-04-30 17:36:24 by Eclipse SUMO netedit Version 1.22.0
<neteditConfiguration xmlns:xsi="http://www.w3.org/2001/XMLSchema-instance" xsi:noNamespaceSchemaLocation="http://sumo.dlr.de/xsd/neteditConfiguration.xsd">

    <input>
        <sumocfg-file value="osm.sumocfg"/>
        <additional-files value="osm.poly.xml.gz"/>
        <route-files value="osm.passenger.trips.xml"/>
        <sumo-net-file value="osm.net.xml.gz"/>
    </input>

    <output>
        <output-file value="osm.net.xml.gz"/>
        <output.street-names value="true"/>
    </output>

    <processing>
        <geometry.min-radius.fix.railways value="false"/>
        <geometry.max-grade.fix value="false"/>
        <offset.disable-normalization value="true"/>
        <lefthand value="0"/>
    </processing>

    <junctions>
        <no-turnarounds value="true"/>
        <junctions.corner-detail value="5"/>
        <junctions.limit-turn-speed value="5.50"/>
        <rectangular-lane-cut value="0"/>
    </junctions>

    <pedestrian>
        <walkingareas value="0"/>
    </pedestrian>

    <netedit>
        <ignore.routeelements value="false"/>
    </netedit>

</neteditConfiguration>
-->

<net version="1.20" junctionCornerDetail="5" limitTurnSpeed="5.50" xmlns:xsi="http://www.w3.org/2001/XMLSchema-instance" xsi:noNamespaceSchemaLocation="http://sumo.dlr.de/xsd/net_file.xsd">

    <location netOffset="-469280.63,-4743372.80" convBoundary="61.62,2.15,2071.51,3414.25" origBoundary="74.623967,42.842335,74.649425,42.874763" projParameter="+proj=utm +zone=43 +ellps=WGS84 +datum=WGS84 +units=m +no_defs"/>

    <type id="highway.primary" priority="12" numLanes="2" speed="27.78" disallow="tram rail_urban rail rail_electric rail_fast ship container cable_car subway aircraft wheelchair scooter drone" oneway="0"/>
    <type id="highway.primary_link" priority="7" numLanes="1" speed="22.22" disallow="tram rail_urban rail rail_electric rail_fast ship container cable_car subway aircraft wheelchair scooter drone" oneway="0"/>

    <edge id=":1738020599_0" function="internal">
        <lane id=":1738020599_0_0" index="0" disallow="tram rail_urban rail rail_electric rail_fast ship container cable_car subway aircraft wheelchair scooter drone" speed="16.67" length="0.30" shape="850.52,676.94 850.48,677.24"/>
        <lane id=":1738020599_0_1" index="1" disallow="tram rail_urban rail rail_electric rail_fast ship container cable_car subway aircraft wheelchair scooter drone" speed="16.67" length="0.30" shape="847.34,676.54 847.30,676.84"/>
    </edge>
    <edge id=":1809976024_0" function="internal">
        <lane id=":1809976024_0_0" index="0" disallow="tram rail_urban rail rail_electric rail_fast ship container cable_car subway aircraft wheelchair scooter drone" speed="16.67" length="0.30" shape="1043.93,2443.96 1043.93,2444.23"/>
        <lane id=":1809976024_0_1" index="1" disallow="tram rail_urban rail rail_electric rail_fast ship container cable_car subway aircraft wheelchair scooter drone" speed="16.67" length="0.30" shape="1040.73,2443.97 1040.73,2444.26"/>
        <lane id=":1809976024_0_2" index="2" disallow="tram rail_urban rail rail_electric rail_fast ship container cable_car subway aircraft wheelchair scooter drone" speed="16.67" length="0.30" shape="1037.53,2443.99 1037.53,2444.29"/>
        <lane id=":1809976024_0_3" index="3" disallow="tram rail_urban rail rail_electric rail_fast ship container cable_car subway aircraft wheelchair scooter drone" speed="16.67" length="0.30" shape="1034.33,2444.00 1034.33,2444.32"/>
    </edge>
    <edge id=":1810966668_0" function="internal">
        <lane id=":1810966668_0_0" index="0" disallow="tram rail_urban rail rail_electric rail_fast ship container cable_car subway aircraft wheelchair scooter drone" speed="16.67" length="0.30" shape="1043.04,2292.52 1043.04,2292.82"/>
        <lane id=":1810966668_0_1" index="1" disallow="tram rail_urban rail rail_electric rail_fast ship container cable_car subway aircraft wheelchair scooter drone" speed="16.67" length="0.30" shape="1039.84,2292.54 1039.84,2292.84"/>
        <lane id=":1810966668_0_2" index="2" disallow="tram rail_urban rail rail_electric rail_fast ship container cable_car subway aircraft wheelchair scooter drone" speed="16.67" length="0.30" shape="1036.64,2292.56 1036.64,2292.86"/>
        <lane id=":1810966668_0_3" index="3" disallow="tram rail_urban rail rail_electric rail_fast ship container cable_car subway aircraft wheelchair scooter drone" speed="16.67" length="0.30" shape="1033.44,2292.58 1033.44,2292.88"/>
    </edge>
    <edge id=":244493048_0" function="internal">
        <lane id=":244493048_0_0" index="0" disallow="tram rail_urban rail rail_electric rail_fast ship container cable_car subway aircraft wheelchair scooter drone" speed="16.67" length="8.03" shape="792.96,1195.45 792.53,1193.08 791.88,1191.51 791.26,1189.94 790.95,1187.56"/>
        <lane id=":244493048_0_1" index="1" disallow="tram rail_urban rail rail_electric rail_fast ship container cable_car subway aircraft wheelchair scooter drone" speed="16.67" length="8.03" shape="796.15,1195.20 795.72,1192.88 795.07,1191.35 794.46,1189.81 794.15,1187.48"/>
        <lane id=":244493048_0_2" index="2" disallow="tram rail_urban rail rail_electric rail_fast ship container cable_car subway aircraft wheelchair scooter drone" speed="16.67" length="8.03" shape="799.34,1194.95 798.92,1192.68 798.27,1191.18 797.66,1189.68 797.35,1187.40"/>
    </edge>
    <edge id=":244493049_0" function="internal">
        <lane id=":244493049_0_0" index="0" disallow="tram rail_urban rail rail_electric rail_fast ship container cable_car subway aircraft wheelchair scooter drone" speed="16.67" length="7.99" shape="794.16,1150.42 793.98,1148.05 793.50,1146.44 793.06,1144.84 793.02,1142.47"/>
        <lane id=":244493049_0_1" index="1" disallow="tram rail_urban rail rail_electric rail_fast ship container cable_car subway aircraft wheelchair scooter drone" speed="16.67" length="7.99" shape="797.36,1150.51 797.18,1148.19 796.70,1146.63 796.26,1145.06 796.21,1142.76"/>
    </edge>
    <edge id=":244495416_0" function="internal">
        <lane id=":244495416_0_0" index="0" disallow="tram rail_urban rail rail_electric rail_fast ship container cable_car subway aircraft wheelchair scooter drone" speed="6.65" length="8.51" shape="1082.21,1536.62 1080.03,1536.95 1078.36,1537.93 1077.23,1539.57 1076.61,1541.86"/>
    </edge>
    <edge id=":244495416_1" function="internal">
        <lane id=":244495416_1_0" index="0" disallow="tram rail_urban rail rail_electric rail_fast ship container cable_car subway aircraft wheelchair scooter drone" speed="16.67" length="10.16" shape="1082.21,1536.62 1072.02,1536.52"/>
        <lane id=":244495416_1_1" index="1" disallow="tram rail_urban rail rail_electric rail_fast ship container cable_car subway aircraft wheelchair scooter drone" speed="16.67" length="10.16" shape="1082.21,1533.42 1072.08,1533.32"/>
    </edge>
    <edge id=":244495416_3" function="internal">
        <lane id=":244495416_3_0" index="0" disallow="tram rail_urban rail rail_electric rail_fast ship container cable_car subway aircraft wheelchair scooter drone" speed="3.65" length="1.44" shape="1082.21,1533.42 1081.01,1532.62"/>
    </edge>
    <edge id=":244495416_7" function="internal">
        <lane id=":244495416_7_0" index="0" disallow="tram rail_urban rail rail_electric rail_fast ship container cable_car subway aircraft wheelchair scooter drone" speed="3.65" length="3.23" shape="1081.01,1532.62 1080.61,1531.82 1081.01,1531.02 1082.21,1530.22"/>
    </edge>
    <edge id=":244495416_4" function="internal">
        <lane id=":244495416_4_0" index="0" disallow="tram rail_urban rail rail_electric rail_fast ship container cable_car subway aircraft wheelchair scooter drone" speed="16.67" length="10.05" shape="1072.18,1526.92 1082.20,1527.02"/>
        <lane id=":244495416_4_1" index="1" disallow="tram rail_urban rail rail_electric rail_fast ship container cable_car subway aircraft wheelchair scooter drone" speed="16.67" length="10.05" shape="1072.13,1530.12 1082.21,1530.22"/>
    </edge>
    <edge id=":244495416_6" function="internal">
        <lane id=":244495416_6_0" index="0" disallow="tram rail_urban rail rail_electric rail_fast ship container cable_car subway aircraft wheelchair scooter drone" speed="3.65" length="1.44" shape="1072.13,1530.12 1073.32,1530.94"/>
    </edge>
    <edge id=":244495416_8" function="internal">
        <lane id=":244495416_8_0" index="0" disallow="tram rail_urban rail rail_electric rail_fast ship container cable_car subway aircraft wheelchair scooter drone" speed="3.65" length="3.23" shape="1073.32,1530.94 1073.70,1531.75 1073.29,1532.54 1072.08,1533.32"/>
    </edge>
    <edge id=":244495420_0" function="internal">
        <lane id=":244495420_0_0" index="0" disallow="tram rail_urban rail rail_electric rail_fast ship container cable_car subway aircraft wheelchair scooter drone" speed="16.67" length="0.35" shape="1895.98,1508.66 1895.59,1508.76"/>
        <lane id=":244495420_0_1" index="1" disallow="tram rail_urban rail rail_electric rail_fast ship container cable_car subway aircraft wheelchair scooter drone" speed="16.67" length="0.35" shape="1895.10,1505.58 1894.81,1505.66"/>
    </edge>
    <edge id=":244495420_2" function="internal">
        <lane id=":244495420_2_0" index="0" disallow="tram rail_urban rail rail_electric rail_fast ship container cable_car subway aircraft wheelchair scooter drone" speed="3.65" length="2.34" shape="1895.10,1505.58 1893.73,1505.14 1893.13,1504.48"/>
    </edge>
    <edge id=":244495420_6" function="internal">
        <lane id=":244495420_6_0" index="0" disallow="tram rail_urban rail rail_electric rail_fast ship container cable_car subway aircraft wheelchair scooter drone" speed="3.65" length="2.34" shape="1893.13,1504.48 1893.29,1503.60 1894.23,1502.51"/>
    </edge>
    <edge id=":244495420_3" function="internal">
        <lane id=":244495420_3_0" index="0" disallow="tram rail_urban rail rail_electric rail_fast ship container cable_car subway aircraft wheelchair scooter drone" speed="16.67" length="0.17" shape="1893.23,1499.46 1893.35,1499.43"/>
        <lane id=":244495420_3_1" index="1" disallow="tram rail_urban rail rail_electric rail_fast ship container cable_car subway aircraft wheelchair scooter drone" speed="16.67" length="0.17" shape="1894.02,1502.56 1894.23,1502.51"/>
    </edge>
    <edge id=":244495420_5" function="internal">
        <lane id=":244495420_5_0" index="0" disallow="tram rail_urban rail rail_electric rail_fast ship container cable_car subway aircraft wheelchair scooter drone" speed="3.65" length="2.34" shape="1894.02,1502.56 1895.38,1503.04 1895.96,1503.72"/>
    </edge>
    <edge id=":244495420_7" function="internal">
        <lane id=":244495420_7_0" index="0" disallow="tram rail_urban rail rail_electric rail_fast ship container cable_car subway aircraft wheelchair scooter drone" speed="3.65" length="2.34" shape="1895.96,1503.72 1895.77,1504.59 1894.81,1505.66"/>
    </edge>
    <edge id=":244495421_0" function="internal">
        <lane id=":244495421_0_0" index="0" disallow="tram rail_urban rail rail_electric rail_fast ship container cable_car subway aircraft wheelchair scooter drone" speed="16.67" length="0.35" shape="1934.89,1496.21 1934.51,1496.34"/>
        <lane id=":244495421_0_1" index="1" disallow="tram rail_urban rail rail_electric rail_fast ship container cable_car subway aircraft wheelchair scooter drone" speed="16.67" length="0.35" shape="1933.79,1493.21 1933.50,1493.31"/>
    </edge>
    <edge id=":244495421_2" function="internal">
        <lane id=":244495421_2_0" index="0" disallow="tram rail_urban rail rail_electric rail_fast ship container cable_car subway aircraft wheelchair scooter drone" speed="3.65" length="2.34" shape="1933.79,1493.21 1932.39,1492.87 1931.74,1492.26"/>
    </edge>
    <edge id=":244495421_6" function="internal">
        <lane id=":244495421_6_0" index="0" disallow="tram rail_urban rail rail_electric rail_fast ship container cable_car subway aircraft wheelchair scooter drone" speed="3.65" length="2.34" shape="1931.74,1492.26 1931.84,1491.37 1932.69,1490.20"/>
    </edge>
    <edge id=":244495421_3" function="internal">
        <lane id=":244495421_3_0" index="0" disallow="tram rail_urban rail rail_electric rail_fast ship container cable_car subway aircraft wheelchair scooter drone" speed="16.67" length="0.16" shape="1931.48,1487.24 1931.59,1487.20"/>
        <lane id=":244495421_3_1" index="1" disallow="tram rail_urban rail rail_electric rail_fast ship container cable_car subway aircraft wheelchair scooter drone" speed="16.67" length="0.16" shape="1932.49,1490.27 1932.69,1490.20"/>
    </edge>
    <edge id=":244495421_5" function="internal">
        <lane id=":244495421_5_0" index="0" disallow="tram rail_urban rail rail_electric rail_fast ship container cable_car subway aircraft wheelchair scooter drone" speed="3.65" length="2.34" shape="1932.49,1490.27 1933.88,1490.65 1934.52,1491.29"/>
    </edge>
    <edge id=":244495421_7" function="internal">
        <lane id=":244495421_7_0" index="0" disallow="tram rail_urban rail rail_electric rail_fast ship container cable_car subway aircraft wheelchair scooter drone" speed="3.65" length="2.34" shape="1934.52,1491.29 1934.39,1492.17 1933.50,1493.31"/>
    </edge>
    <edge id=":2683395321_0" function="internal">
        <lane id=":2683395321_0_0" index="0" disallow="tram rail_urban rail rail_electric rail_fast ship container cable_car subway aircraft wheelchair scooter drone" speed="16.67" length="0.30" shape="1018.34,2448.05 1018.34,2447.77"/>
        <lane id=":2683395321_0_1" index="1" disallow="tram rail_urban rail rail_electric rail_fast ship container cable_car subway aircraft wheelchair scooter drone" speed="16.67" length="0.30" shape="1021.54,2448.04 1021.54,2447.75"/>
        <lane id=":2683395321_0_2" index="2" disallow="tram rail_urban rail rail_electric rail_fast ship container cable_car subway aircraft wheelchair scooter drone" speed="16.67" length="0.30" shape="1024.74,2448.04 1024.74,2447.73"/>
        <lane id=":2683395321_0_3" index="3" disallow="tram rail_urban rail rail_electric rail_fast ship container cable_car subway aircraft wheelchair scooter drone" speed="16.67" length="0.30" shape="1027.94,2448.03 1027.94,2447.71"/>
    </edge>
    <edge id=":2683407202_0" function="internal">
        <lane id=":2683407202_0_0" index="0" disallow="tram rail_urban rail rail_electric rail_fast ship container cable_car subway aircraft wheelchair scooter drone" speed="13.89" length="0.38" shape="1028.15,2956.88 1028.13,2956.62"/>
        <lane id=":2683407202_0_1" index="1" disallow="tram rail_urban rail rail_electric rail_fast ship container cable_car subway aircraft wheelchair scooter drone" speed="13.89" length="0.38" shape="1031.34,2956.72 1031.32,2956.38"/>
        <lane id=":2683407202_0_2" index="2" disallow="tram rail_urban rail rail_electric rail_fast ship container cable_car subway aircraft wheelchair scooter drone" speed="13.89" length="0.38" shape="1034.54,2956.56 1034.51,2956.14"/>
        <lane id=":2683407202_0_3" index="3" disallow="tram rail_urban rail rail_electric rail_fast ship container cable_car subway aircraft wheelchair scooter drone" speed="13.89" length="0.38" shape="1037.73,2956.40 1037.70,2955.90"/>
    </edge>
    <edge id=":2683414741_0" function="internal">
        <lane id=":2683414741_0_0" index="0" disallow="tram rail_urban rail rail_electric rail_fast ship container cable_car subway aircraft wheelchair scooter drone" speed="13.89" length="0.54" shape="1052.67,2948.05 1052.70,2948.40"/>
        <lane id=":2683414741_0_1" index="1" disallow="tram rail_urban rail rail_electric rail_fast ship container cable_car subway aircraft wheelchair scooter drone" speed="13.89" length="0.54" shape="1049.48,2948.26 1049.52,2948.73"/>
        <lane id=":2683414741_0_2" index="2" disallow="tram rail_urban rail rail_electric rail_fast ship container cable_car subway aircraft wheelchair scooter drone" speed="13.89" length="0.54" shape="1046.29,2948.47 1046.34,2949.06"/>
        <lane id=":2683414741_0_3" index="3" disallow="tram rail_urban rail rail_electric rail_fast ship container cable_car subway aircraft wheelchair scooter drone" speed="13.89" length="0.54" shape="1043.09,2948.68 1043.15,2949.40"/>
    </edge>
    <edge id=":270077326#0-AddedOffRampNode_0" function="internal">
        <lane id=":270077326#0-AddedOffRampNode_0_0" index="0" disallow="tram rail_urban rail rail_electric rail_fast ship container cable_car subway aircraft wheelchair scooter drone" speed="16.67" length="1.63" shape="1018.86,2599.78 1017.26,2599.48"/>
        <lane id=":270077326#0-AddedOffRampNode_0_1" index="1" disallow="tram rail_urban rail rail_electric rail_fast ship container cable_car subway aircraft wheelchair scooter drone" speed="16.67" length="1.63" shape="1022.06,2599.76 1020.46,2599.47"/>
        <lane id=":270077326#0-AddedOffRampNode_0_2" index="2" disallow="tram rail_urban rail rail_electric rail_fast ship container cable_car subway aircraft wheelchair scooter drone" speed="16.67" length="1.63" shape="1025.26,2599.75 1023.66,2599.46"/>
        <lane id=":270077326#0-AddedOffRampNode_0_3" index="3" disallow="tram rail_urban rail rail_electric rail_fast ship container cable_car subway aircraft wheelchair scooter drone" speed="16.67" length="1.63" shape="1028.46,2599.73 1026.86,2599.44"/>
    </edge>
    <edge id=":2751665438_0" function="internal">
        <lane id=":2751665438_0_0" index="0" disallow="tram rail_urban rail rail_electric rail_fast ship container cable_car subway aircraft wheelchair scooter drone" speed="13.89" length="0.63" shape="1045.64,2828.67 1045.65,2829.08"/>
        <lane id=":2751665438_0_1" index="1" disallow="tram rail_urban rail rail_electric rail_fast ship container cable_car subway aircraft wheelchair scooter drone" speed="13.89" length="0.63" shape="1042.44,2828.66 1042.45,2829.22"/>
        <lane id=":2751665438_0_2" index="2" disallow="tram rail_urban rail rail_electric rail_fast ship container cable_car subway aircraft wheelchair scooter drone" speed="13.89" length="0.63" shape="1039.24,2828.65 1039.26,2829.35"/>
        <lane id=":2751665438_0_3" index="3" disallow="tram rail_urban rail rail_electric rail_fast ship container cable_car subway aircraft wheelchair scooter drone" speed="13.89" length="0.63" shape="1036.04,2828.64 1036.06,2829.49"/>
    </edge>
    <edge id=":2751665440_0" function="internal">
        <lane id=":2751665440_0_0" index="0" disallow="tram rail_urban rail rail_electric rail_fast ship container cable_car subway aircraft wheelchair scooter drone" speed="16.67" length="0.39" shape="1054.74,2967.93 1054.79,2968.44"/>
        <lane id=":2751665440_0_1" index="1" disallow="tram rail_urban rail rail_electric rail_fast ship container cable_car subway aircraft wheelchair scooter drone" speed="16.67" length="0.39" shape="1051.56,2968.26 1051.60,2968.69"/>
        <lane id=":2751665440_0_2" index="2" disallow="tram rail_urban rail rail_electric rail_fast ship container cable_car subway aircraft wheelchair scooter drone" speed="16.67" length="0.39" shape="1048.38,2968.59 1048.41,2968.94"/>
        <lane id=":2751665440_0_3" index="3" disallow="tram rail_urban rail rail_electric rail_fast ship container cable_car subway aircraft wheelchair scooter drone" speed="16.67" length="0.39" shape="1045.20,2968.93 1045.22,2969.19"/>
    </edge>
    <edge id=":2751665443_0" function="internal">
        <lane id=":2751665443_0_0" index="0" disallow="tram rail_urban rail rail_electric rail_fast ship container cable_car subway aircraft wheelchair scooter drone" speed="13.89" length="0.30" shape="1042.11,3124.38 1042.09,3124.12"/>
        <lane id=":2751665443_0_1" index="1" disallow="tram rail_urban rail rail_electric rail_fast ship container cable_car subway aircraft wheelchair scooter drone" speed="13.89" length="0.30" shape="1045.30,3124.15 1045.28,3123.87"/>
        <lane id=":2751665443_0_2" index="2" disallow="tram rail_urban rail rail_electric rail_fast ship container cable_car subway aircraft wheelchair scooter drone" speed="13.89" length="0.30" shape="1048.50,3123.92 1048.47,3123.62"/>
        <lane id=":2751665443_0_3" index="3" disallow="tram rail_urban rail rail_electric rail_fast ship container cable_car subway aircraft wheelchair scooter drone" speed="13.89" length="0.30" shape="1051.69,3123.69 1051.66,3123.36"/>
    </edge>
    <edge id=":280013514_0" function="internal">
        <lane id=":280013514_0_0" index="0" disallow="tram rail_urban rail rail_electric rail_fast ship container cable_car subway aircraft wheelchair scooter drone" speed="16.67" length="13.95" shape="871.64,1535.83 857.79,1535.77"/>
        <lane id=":280013514_0_1" index="1" disallow="tram rail_urban rail rail_electric rail_fast ship container cable_car subway aircraft wheelchair scooter drone" speed="16.67" length="13.95" shape="871.63,1532.63 857.68,1532.57"/>
        <lane id=":280013514_0_2" index="2" disallow="tram rail_urban rail rail_electric rail_fast ship container cable_car subway aircraft wheelchair scooter drone" speed="16.67" length="13.95" shape="871.63,1529.43 857.57,1529.37"/>
    </edge>
    <edge id=":280013514_3" function="internal">
        <lane id=":280013514_3_0" index="0" disallow="tram rail_urban rail rail_electric rail_fast ship container cable_car subway aircraft wheelchair scooter drone" speed="7.56" length="12.96" shape="857.24,1519.78 860.23,1519.10 862.26,1517.29 863.33,1514.36 863.45,1510.31"/>
    </edge>
    <edge id=":280013514_4" function="internal">
        <lane id=":280013514_4_0" index="0" disallow="tram rail_urban rail rail_electric rail_fast ship container cable_car subway aircraft wheelchair scooter drone" speed="16.67" length="14.26" shape="857.24,1519.78 871.61,1519.83"/>
        <lane id=":280013514_4_1" index="1" disallow="tram rail_urban rail rail_electric rail_fast ship container cable_car subway aircraft wheelchair scooter drone" speed="16.67" length="14.26" shape="857.35,1522.98 871.61,1523.03"/>
        <lane id=":280013514_4_2" index="2" disallow="tram rail_urban rail rail_electric rail_fast ship container cable_car subway aircraft wheelchair scooter drone" speed="16.67" length="14.26" shape="857.46,1526.18 871.62,1526.23"/>
    </edge>
    <edge id=":280014022_0" function="internal">
        <lane id=":280014022_0_0" index="0" disallow="tram rail_urban rail rail_electric rail_fast ship container cable_car subway aircraft wheelchair scooter drone" speed="16.67" length="0.21" shape="169.32,1562.65 169.24,1562.66"/>
        <lane id=":280014022_0_1" index="1" disallow="tram rail_urban rail rail_electric rail_fast ship container cable_car subway aircraft wheelchair scooter drone" speed="16.67" length="0.21" shape="169.25,1559.45 169.04,1559.46"/>
        <lane id=":280014022_0_2" index="2" disallow="tram rail_urban rail rail_electric rail_fast ship container cable_car subway aircraft wheelchair scooter drone" speed="16.67" length="0.21" shape="169.19,1556.26 168.84,1556.27"/>
    </edge>
    <edge id=":280014022_3" function="internal">
        <lane id=":280014022_3_0" index="0" disallow="tram rail_urban rail rail_electric rail_fast ship container cable_car subway aircraft wheelchair scooter drone" speed="16.67" length="0.62" shape="168.25,1546.69 169.00,1546.66"/>
        <lane id=":280014022_3_1" index="1" disallow="tram rail_urban rail rail_electric rail_fast ship container cable_car subway aircraft wheelchair scooter drone" speed="16.67" length="0.62" shape="168.44,1549.88 169.06,1549.86"/>
        <lane id=":280014022_3_2" index="2" disallow="tram rail_urban rail rail_electric rail_fast ship container cable_car subway aircraft wheelchair scooter drone" speed="16.67" length="0.62" shape="168.64,1553.08 169.13,1553.06"/>
    </edge>
    <edge id=":4410974495_0" function="internal">
        <lane id=":4410974495_0_0" index="0" disallow="tram rail_urban rail rail_electric rail_fast ship container cable_car subway aircraft wheelchair scooter drone" speed="16.67" length="0.30" shape="451.10,1549.51 450.80,1549.52"/>
        <lane id=":4410974495_0_1" index="1" disallow="tram rail_urban rail rail_electric rail_fast ship container cable_car subway aircraft wheelchair scooter drone" speed="16.67" length="0.30" shape="450.99,1546.31 450.69,1546.32"/>
        <lane id=":4410974495_0_2" index="2" disallow="tram rail_urban rail rail_electric rail_fast ship container cable_car subway aircraft wheelchair scooter drone" speed="16.67" length="0.30" shape="450.88,1543.11 450.58,1543.12"/>
    </edge>
    <edge id=":4410974495_3" function="internal">
        <lane id=":4410974495_3_0" index="0" disallow="tram rail_urban rail rail_electric rail_fast ship container cable_car subway aircraft wheelchair scooter drone" speed="3.65" length="2.34" shape="450.88,1543.11 449.66,1542.36 449.23,1541.57"/>
    </edge>
    <edge id=":4410974495_8" function="internal">
        <lane id=":4410974495_8_0" index="0" disallow="tram rail_urban rail rail_electric rail_fast ship container cable_car subway aircraft wheelchair scooter drone" speed="3.65" length="2.34" shape="449.23,1541.57 449.60,1540.76 450.77,1539.92"/>
    </edge>
    <edge id=":4410974495_4" function="internal">
        <lane id=":4410974495_4_0" index="0" disallow="tram rail_urban rail rail_electric rail_fast ship container cable_car subway aircraft wheelchair scooter drone" speed="16.67" length="0.30" shape="450.26,1533.53 450.55,1533.52"/>
        <lane id=":4410974495_4_1" index="1" disallow="tram rail_urban rail rail_electric rail_fast ship container cable_car subway aircraft wheelchair scooter drone" speed="16.67" length="0.30" shape="450.37,1536.73 450.66,1536.72"/>
        <lane id=":4410974495_4_2" index="2" disallow="tram rail_urban rail rail_electric rail_fast ship container cable_car subway aircraft wheelchair scooter drone" speed="16.67" length="0.30" shape="450.48,1539.93 450.77,1539.92"/>
    </edge>
    <edge id=":4410974495_7" function="internal">
        <lane id=":4410974495_7_0" index="0" disallow="tram rail_urban rail rail_electric rail_fast ship container cable_car subway aircraft wheelchair scooter drone" speed="3.65" length="2.34" shape="450.48,1539.93 451.70,1540.68 452.13,1541.47"/>
    </edge>
    <edge id=":4410974495_9" function="internal">
        <lane id=":4410974495_9_0" index="0" disallow="tram rail_urban rail rail_electric rail_fast ship container cable_car subway aircraft wheelchair scooter drone" speed="3.65" length="2.34" shape="452.13,1541.47 451.76,1542.28 450.58,1543.12"/>
    </edge>
    <edge id=":5129863442_0" function="internal">
        <lane id=":5129863442_0_0" index="0" disallow="tram rail_urban rail rail_electric rail_fast ship container cable_car subway aircraft wheelchair scooter drone" speed="3.65" length="4.67" shape="2071.17,1449.79 2072.51,1450.31 2073.07,1451.01 2072.85,1451.87 2071.85,1452.91"/>
    </edge>
    <edge id=":5987979390_0" function="internal">
        <lane id=":5987979390_0_0" index="0" disallow="tram rail_urban rail rail_electric rail_fast ship container cable_car subway aircraft wheelchair scooter drone" speed="16.67" length="0.10" shape="549.53,1546.13 549.53,1546.13"/>
        <lane id=":5987979390_0_1" index="1" disallow="tram rail_urban rail rail_electric rail_fast ship container cable_car subway aircraft wheelchair scooter drone" speed="16.67" length="0.10" shape="549.42,1542.93 549.42,1542.93"/>
        <lane id=":5987979390_0_2" index="2" disallow="tram rail_urban rail rail_electric rail_fast ship container cable_car subway aircraft wheelchair scooter drone" speed="16.67" length="0.10" shape="549.31,1539.73 549.31,1539.73"/>
    </edge>
    <edge id=":5987979390_3" function="internal">
        <lane id=":5987979390_3_0" index="0" disallow="tram rail_urban rail rail_electric rail_fast ship container cable_car subway aircraft wheelchair scooter drone" speed="16.67" length="0.10" shape="548.99,1530.13 548.99,1530.13"/>
        <lane id=":5987979390_3_1" index="1" disallow="tram rail_urban rail rail_electric rail_fast ship container cable_car subway aircraft wheelchair scooter drone" speed="16.67" length="0.10" shape="549.10,1533.33 549.10,1533.33"/>
        <lane id=":5987979390_3_2" index="2" disallow="tram rail_urban rail rail_electric rail_fast ship container cable_car subway aircraft wheelchair scooter drone" speed="16.67" length="0.10" shape="549.21,1536.53 549.21,1536.53"/>
    </edge>
    <edge id=":6220393228_0" function="internal">
        <lane id=":6220393228_0_0" index="0" disallow="tram rail_urban rail rail_electric rail_fast ship container cable_car subway aircraft wheelchair scooter drone" speed="16.67" length="0.30" shape="1016.15,1929.82 1016.15,1929.50"/>
        <lane id=":6220393228_0_1" index="1" disallow="tram rail_urban rail rail_electric rail_fast ship container cable_car subway aircraft wheelchair scooter drone" speed="16.67" length="0.30" shape="1019.35,1929.80 1019.35,1929.49"/>
        <lane id=":6220393228_0_2" index="2" disallow="tram rail_urban rail rail_electric rail_fast ship container cable_car subway aircraft wheelchair scooter drone" speed="16.67" length="0.30" shape="1022.55,1929.78 1022.55,1929.49"/>
        <lane id=":6220393228_0_3" index="3" disallow="tram rail_urban rail rail_electric rail_fast ship container cable_car subway aircraft wheelchair scooter drone" speed="16.67" length="0.30" shape="1025.75,1929.76 1025.75,1929.48"/>
    </edge>
    <edge id=":622862311_0" function="internal">
        <lane id=":622862311_0_0" index="0" disallow="tram rail_urban rail rail_electric rail_fast ship container cable_car subway aircraft wheelchair scooter drone" speed="16.67" length="0.30" shape="1072.77,3199.31 1072.80,3199.58"/>